%nproc=1
%NoSave
%Mem=1900MB
#P OB98/GEN NMR

erre ene a

0 1
  C       53.634      36.547      84.604
  O       53.558      35.382      85.402
  H       52.749      37.158      84.794
  H       53.657      36.284      83.543
  H       54.523      37.129      84.863
  P       54.725      34.293      85.276
  C       53.524      33.282      83.225
  O       54.734      33.822      83.742
  C       53.633      33.089      81.715
  O       53.819      34.357      81.058
  C       54.799      32.202      81.279
  O       54.461      30.832      81.407
  C       54.946      32.633      79.829
  O       53.908      32.024      79.035
  C       54.709      34.152      79.925
  N       59.292      35.370      78.118
  C       58.401      34.404      77.693
  N       58.800      33.633      76.659
  N       57.230      34.204      78.240
  C       56.994      35.000      79.307
  C       57.805      35.979      79.834
  C       59.070      36.236      79.178
  O       59.879      37.100      79.509
  N       57.270      36.515      80.978
  C       56.112      35.896      81.112
  N       55.900      34.958      80.127
  O       54.678      33.161      86.257
  O       56.075      35.144      85.404
  H       53.899      31.075      79.255
  H       56.379      35.184      86.329
  H       60.184      35.473      77.663
  H       55.390      36.090      81.896
  H       54.206      34.547      79.036
  H       55.902      32.337      79.393
  H       59.742      33.639      76.296
  H       55.718      32.453      81.819
  H       58.184      32.882      76.372
  H       52.677      32.680      81.360
  H       52.720      33.986      83.463
  H       53.300      32.322      83.702
  P       55.423      29.798      82.175
  C       56.868      29.516      80.049
  O       56.833      29.885      81.416
  O       54.875      28.420      82.315
  O       55.748      30.519      83.563
  H       55.058      30.356      84.254
  H       57.865      29.623      79.676
  H       56.209      30.149      79.492
  H       56.556      28.498      79.946

 6  7  8  9  10  11  12  13  14  15  26  29  33  34 0
 6-311+G(2d,p)
 ****
 36  38  39  40  41 0
 6-311+G(2d,p)
 ****
 1  2  3  4  5  16  17  18  19  20  21  22  23  24  25 0
 3-21G
 ****
 27  28  30  31  32  35  37  42  43  44  45  46  47 0
 3-21G
 ****
 48  49 0
 3-21G
 ****


