%nproc=1
%NoSave
%Mem=1900MB
#P OB98/GEN NMR

erre ene a

0 1
  C      371.342    -117.766     193.520
  O      371.337    -118.089     194.905
  P      372.278    -119.298     195.394
  C      370.388    -121.077     195.507
  O      371.578    -120.637     194.851
  C      369.938    -122.424     194.946
  O      369.594    -122.295     193.552
  C      370.994    -123.518     195.006
  O      371.063    -124.129     196.291
  C      370.457    -124.501     193.981
  O      369.392    -125.278     194.552
  C      369.902    -123.556     192.900
  N      371.767    -125.457     188.538
  C      370.901    -125.964     189.435
  N      370.458    -125.396     190.579
  C      371.044    -124.204     190.779
  C      371.975    -123.577     189.960
  C      372.334    -124.252     188.784
  N      373.198    -123.725     187.846
  N      372.345    -122.360     190.496
  C      371.646    -122.247     191.600
  N      370.832    -123.330     191.813
  O      372.014    -119.351     196.973
  O      373.728    -119.137     195.072
  H      369.748    -125.698     195.361
  H      372.766    -119.775     197.420
  H      370.498    -126.948     189.206
  H      371.684    -121.399     192.276
  H      368.971    -123.930     192.461
  H      371.213    -125.204     193.620
  H      371.977    -123.145     194.681
  H      369.034    -122.736     195.490
  H      369.593    -120.344     195.344
  H      373.260    -124.178     186.952
  H      373.455    -122.744     187.938
  H      370.580    -121.156     196.584
  P      372.532    -124.423     196.873
  C      372.294    -126.804     195.868
  O      373.101    -125.647     196.015
  O      372.226    -125.058     198.310
  O      373.406    -123.217     196.954
  H      372.977    -124.915     198.913
  H      372.675    -127.395     195.027
  H      371.253    -126.543     195.669
  H      372.357    -127.414     196.776
  H      370.675    -116.949     193.342
  H      371.023    -118.616     192.954
  H      372.332    -117.490     193.222

 3  4  5  6  7  8  9  10  11  12  22  25  29  30  31  32 0
 6-311+G(2d,p)
 ****
 33  36  37 0
 6-311+G(2d,p)
 ****
 1  2  13  14  15  16  17  18  19  20  21  23  24  26 0
 3-21G
 ****
 27  28  34  35  38  39  40  41  42  43  44  45  46  47  48 0
 3-21G
 ****


