%nproc=1
%NoSave
%Mem=1900MB
#P OB98/GEN NMR

erre ene a

0 1
  C      402.200      56.544     131.476
  O      400.831      56.851     131.330
  P      399.895      57.269     132.554
  C      398.085      55.566     131.782
  O      398.888      56.054     132.858
  C      397.903      54.041     131.819
  O      399.194      53.399     131.751
  C      397.275      53.617     133.151
  O      395.872      53.678     133.325
  C      397.905      52.264     133.467
  O      397.064      51.168     133.108
  C      399.187      52.265     132.635
  N      401.752      50.209     136.497
  C      400.658      49.706     135.815
  N      400.069      48.621     136.356
  N      400.184      50.244     134.720
  C      400.822      51.383     134.353
  C      401.920      51.966     134.939
  C      402.463      51.339     136.124
  O      403.375      51.801     136.807
  N      402.247      53.153     134.340
  C      401.321      53.316     133.413
  N      400.410      52.283     133.410
  O      399.352      58.665     132.541
  O      400.925      57.170     133.796
  H      396.938      51.190     132.145
  H      400.687      57.866     134.434
  H      402.027      49.797     137.380
  H      401.247      54.167     132.751
  H      399.228      51.376     131.996
  H      398.085      52.170     134.544
  H      400.318      48.272     137.273
  H      397.668      54.299     133.915
  H      399.173      48.335     135.983
  H      397.352      53.692     130.939
  H      398.571      55.878     130.848
  H      397.103      56.047     131.809
  P      395.098      54.451     134.491
  C      394.347      52.128     135.253
  O      394.774      53.409     135.667
  O      393.646      54.748     133.871
  O      395.735      55.727     134.938
  H      393.235      55.498     134.347
  H      393.879      51.621     136.101
  H      395.209      51.541     134.924
  H      393.618      52.198     134.432
  H      402.613      56.294     130.521
  H      402.310      55.713     132.141
  H      402.715      57.392     131.877

 3  4  5  6  7  8  9  10  11  12  23  26  30  31 0
 6-311+G(2d,p)
 ****
 33  35  36  37  38 0
 6-311+G(2d,p)
 ****
 1  2  13  14  15  16  17  18  19  20  21  22  24  25 0
 3-21G
 ****
 27  28  29  32  34  39  40  41  42  43  44  45  46  47  48  49 0
 3-21G
 ****


