%nproc=1
%NoSave
%Mem=1900MB
#P OB98/GEN NMR

erre ene a

0 1
  C     -105.786     181.387      71.722
  O     -104.551     181.675      72.356
  P     -104.423     182.838      73.458
  C     -104.258     185.415      73.301
  O     -104.623     184.210      72.651
  C     -104.522     186.613      72.386
  O     -105.739     186.364      71.637
  C     -104.698     187.947      73.126
  O     -104.140     188.970      72.294
  C     -106.206     188.088      73.212
  O     -106.618     189.434      73.404
  C     -106.631     187.473      71.875
  N     -108.023     187.037      71.876
  C     -108.889     187.630      70.957
  O     -108.495     188.508      70.190
  N     -110.197     187.214      70.924
  C     -110.623     186.347      71.790
  N     -111.910     185.923      71.678
  C     -109.765     185.776      72.847
  C     -108.488     186.145      72.814
  O     -103.188     182.779      74.289
  O     -105.780     182.742      74.293
  H     -107.587     189.446      73.517
  H     -105.737     182.076      75.023
  H     -110.174     185.077      73.563
  H     -107.783     185.759      73.534
  H     -106.468     188.188      71.061
  H     -106.580     187.498      74.055
  H     -104.199     187.958      74.099
  H     -103.701     186.683      71.663
  H     -112.411     186.204      70.840
  H     -103.189     185.374      73.527
  H     -112.208     185.043      72.084
  H     -104.808     185.509      74.244
  P     -103.557     190.290      73.000
  C     -104.542     192.522      73.877
  O     -104.794     191.202      73.447
  O     -102.981     191.102      71.738
  O     -102.471     190.080      74.004
  H     -102.271     191.696      72.041
  H     -105.496     192.994      74.134
  H     -104.073     193.104      73.079
  H     -103.904     192.522      74.763
  H     -105.652     180.584      71.028
  H     -106.130     182.256      71.200
  H     -106.508     181.104      72.459

 3  4  5  6  7  8  9  10  11  12  13  23  27  28  29  30  32 0
 6-311+G(2d,p)
 ****
 34  35 0
 6-311+G(2d,p)
 ****
 1  2  14  15  16  17  18  19  20  21  22  24  25  26 0
 3-21G
 ****
 31  33  36  37  38  39  40  41  42  43  44  45  46 0
 3-21G
 ****


