%nproc=1
%NoSave
%Mem=1900MB
#P OB98/GEN NMR

erre ene a

0 1
  C      252.495      97.624    -219.452
  O      253.413      96.991    -220.321
  H      251.674      98.031    -220.046
  H      252.988      98.444    -218.922
  H      252.091      96.905    -218.732
  P      254.609      96.168    -219.632
  C      254.085      93.822    -220.689
  O      254.094      94.652    -219.542
  C      253.693      92.391    -220.315
  O      254.825      91.751    -219.674
  C      252.504      92.309    -219.357
  O      251.733      91.153    -219.690
  C      253.162      92.101    -218.002
  O      252.278      91.491    -217.065
  C      254.386      91.259    -218.391
  N      255.451      91.332    -217.394
  C      255.586      90.235    -216.536
  O      254.819      89.274    -216.633
  N      256.553      90.265    -215.564
  C      257.281      91.328    -215.415
  N      258.206      91.305    -214.417
  C      257.145      92.525    -216.267
  C      256.227      92.455    -217.232
  O      254.533      96.686    -218.119
  O      255.939      96.352    -220.281
  H      251.902      90.681    -217.472
  H      253.628      96.728    -217.769
  H      257.768      93.391    -216.096
  H      256.066      93.286    -217.907
  H      254.105      90.205    -218.516
  H      253.478      93.065    -217.587
  H      251.872      93.200    -219.390
  H      253.494      91.832    -221.238
  H      258.250      90.473    -213.843
  H      255.073      93.814    -221.161
  H      258.787      92.094    -214.174
  H      253.370      94.238    -221.404
  P      250.242      91.332    -220.244
  C      251.120      91.092    -222.664
  O      250.298      91.828    -221.768
  O      249.308      92.091    -219.362
  O      249.740      89.811    -220.401
  H      248.812      89.772    -220.098
  H      251.064      91.529    -223.639
  H      250.782      90.078    -222.707
  H      252.133      91.116    -222.320

 6  7  8  9  10  11  12  13  14  15  16  26  30  31  32  33  35 0
 6-311+G(2d,p)
 ****
 37  38 0
 6-311+G(2d,p)
 ****
 1  2  3  4  5  17  18  19  20  21  22  23  24  25 0
 3-21G
 ****
 27  28  29  34  36  39  40  41  42  43  44  45  46 0
 3-21G
 ****


