%nproc=1
%NoSave
%Mem=1900MB
#P OB98/GEN NMR

erre ene a

0 1
  C      900.300     381.992     101.444
  O      899.167     382.050     100.599
  H      900.871     382.917     101.336
  H      900.932     381.150     101.144
  H      900.003     381.881     102.491
  P      897.992     380.999     100.876
  C      896.055     382.693     101.254
  O      896.933     381.735     101.837
  C      894.735     382.741     102.023
  O      893.916     381.605     101.615
  C      894.893     382.677     103.557
  O      893.900     383.523     104.156
  C      894.550     381.235     103.867
  O      894.114     381.058     105.212
  C      893.466     380.967     102.828
  N      890.298     377.648     100.795
  C      890.372     379.021     100.658
  N      889.414     379.610      99.905
  N      891.297     379.752     101.213
  C      892.210     379.030     101.917
  C      892.243     377.671     102.133
  C      891.198     376.873     101.528
  O      891.069     375.656     101.635
  N      893.290     377.334     102.961
  C      893.862     378.491     103.253
  N      893.245     379.544     102.646
  O      898.691     379.928     101.839
  O      897.409     380.358      99.663
  H      893.701     380.175     105.283
  H      899.030     379.182     101.311
  H      889.548     377.132     100.363
  H      894.715     378.614     103.913
  H      892.497     381.407     103.105
  H      895.426     380.591     103.696
  H      888.678     379.117      99.427
  H      895.888     382.970     103.910
  H      889.481     380.617      99.764
  H      894.194     383.647     101.727
  H      895.856     382.405     100.217
  H      896.543     383.675     101.263
  P      894.396     384.710     105.104
  C      894.057     386.034     102.885
  O      894.572     386.036     104.207
  O      895.905     384.304     105.444
  O      893.582     384.885     106.341
  H      896.129     384.588     106.351
  H      894.252     386.980     102.425
  H      893.001     385.863     102.914
  H      894.529     385.258     102.320

 6  7  8  9  10  11  12  13  14  15  26  29  33  34 0
 6-311+G(2d,p)
 ****
 36  38  39  40  41 0
 6-311+G(2d,p)
 ****
 1  2  3  4  5  16  17  18  19  20  21  22  23  24  25 0
 3-21G
 ****
 27  28  30  31  32  35  37  42  43  44  45  46  47 0
 3-21G
 ****
 48  49 0
 3-21G
 ****


