%nproc=1
%NoSave
%Mem=1900MB
#P OB98/GEN NMR

erre ene a

0 1
  C      -95.909      82.782      -4.218
  O      -95.362      81.924      -5.205
  H      -96.163      83.738      -4.684
  H      -95.180      82.951      -3.423
  H      -96.822      82.339      -3.802
  P      -94.964      80.446      -4.722
  C      -92.669      80.949      -3.586
  O      -94.046      80.639      -3.418
  C      -91.930      80.808      -2.251
  O      -90.492      80.852      -2.511
  C      -92.239      81.935      -1.251
  O      -92.116      81.411       0.086
  C      -91.095      82.905      -1.509
  O      -90.972      83.823      -0.453
  C      -89.952      81.913      -1.688
  N      -85.140      81.042      -3.130
  C      -86.085      80.232      -2.605
  N      -87.347      80.542      -2.257
  C      -87.617      81.833      -2.526
  C      -86.753      82.777      -3.061
  C      -85.451      82.341      -3.365
  N      -84.484      83.166      -3.878
  N      -87.389      84.005      -3.164
  C      -88.609      83.800      -2.705
  N      -88.787      82.501      -2.312
  O      -93.928      79.962      -5.847
  O      -96.096      79.492      -4.559
  H      -91.809      84.311      -0.310
  H      -94.400      79.474      -6.547
  H      -85.781      79.200      -2.443
  H      -89.389      84.545      -2.631
  H      -89.632      81.468      -0.733
  H      -91.269      83.481      -2.429
  H      -93.232      82.377      -1.384
  H      -92.142      79.823      -1.819
  H      -92.586      81.980      -3.954
  H      -92.229      80.266      -4.321
  H      -83.564      82.781      -4.041
  H      -84.693      84.142      -4.023
  P      -93.396      81.459       1.061
  C      -92.411      82.652       3.166
  O      -93.295      82.716       2.053
  O      -93.108      80.224       2.039
  O      -94.719      81.292       0.388
  H      -93.924      79.695       2.149
  H      -92.467      83.566       3.719
  H      -91.410      82.506       2.818
  H      -92.692      81.836       3.798

 6  7  8  9  10  11  12  13  14  15  25  28  32  33  34  35 0
 6-311+G(2d,p)
 ****
 36  37  40 0
 6-311+G(2d,p)
 ****
 1  2  3  4  5  16  17  18  19  20  21  22  23  24 0
 3-21G
 ****
 26  27  29  30  31  38  39 41  42  43  44  45  46  47  48 0
 3-21G
 ****


