%nproc=1
%NoSave
%Mem=1900MB
#P OB98/GEN NMR

erre ene a

0 1
  C      336.243    -196.576     -77.775
  O      335.225    -197.539     -77.547
  P      335.665    -199.056     -77.281
  C      337.182    -200.783     -78.495
  O      336.400    -199.601     -78.602
  C      338.473    -200.660     -79.310
  O      339.099    -199.368     -79.053
  C      339.510    -201.739     -78.986
  O      340.241    -202.069     -80.175
  C      340.471    -201.033     -78.043
  O      341.752    -201.656     -78.042
  C      340.445    -199.620     -78.620
  N      344.423    -197.626     -76.210
  C      344.390    -198.440     -77.323
  N      345.584    -198.850     -77.810
  N      343.289    -198.817     -77.922
  C      342.171    -198.339     -77.321
  C      342.075    -197.509     -76.231
  C      343.297    -197.112     -75.576
  O      343.401    -196.412     -74.566
  N      340.763    -197.211     -75.937
  C      340.069    -197.887     -76.827
  N      340.871    -198.611     -77.666
  O      334.264    -199.834     -77.277
  O      336.399    -199.277     -76.001
  H      341.610    -202.594     -77.824
  H      334.019    -200.077     -76.369
  H      345.296    -197.371     -75.784
  H      338.987    -197.901     -76.895
  H      341.093    -199.537     -79.505
  H      340.077    -201.056     -77.016
  H      346.469    -198.651     -77.352
  H      339.090    -202.658     -78.551
  H      345.595    -199.484     -78.596
  H      338.214    -200.680     -80.378
  H      336.604    -201.630     -78.863
  H      337.416    -200.964     -77.438
  P      340.667    -203.610     -80.335
  C      342.311    -205.130     -78.994
  O      341.493    -203.977     -79.010
  O      341.791    -203.566     -81.479
  O      339.538    -204.530     -80.674
  H      341.840    -204.426     -81.938
  H      343.350    -204.823     -78.856
  H      342.235    -205.704     -79.922
  H      342.016    -205.769     -78.156
  H      335.797    -195.617     -77.936
  H      336.811    -196.854     -78.638
  H      336.889    -196.531     -76.923

 3  4  5  6  7  8  9  10  11  12  23  26  30  31 0
 6-311+G(2d,p)
 ****
 33  35  36  37  38 0
 6-311+G(2d,p)
 ****
 1  2  13  14  15  16  17  18  19  20  21  22  24  25 0
 3-21G
 ****
 27  28  29  32  34  39  40  41  42  43  44  45  46  47  48  49 0
 3-21G
 ****


