%nproc=1
%NoSave
%Mem=1900MB
#P OB98/GEN NMR

erre ene a

0 1
  C     -138.912      48.194     -72.406
  O     -140.220      48.736     -72.621
  P     -141.547      47.873     -72.359
  C     -143.249      49.791     -72.230
  O     -142.839      48.631     -72.947
  C     -142.413      51.034     -72.561
  O     -142.464      51.332     -73.983
  C     -142.839      52.315     -71.829
  O     -141.645      53.082     -71.646
  C     -143.748      52.978     -72.850
  O     -143.948      54.365     -72.616
  C     -142.997      52.663     -74.139
  N     -144.454      55.600     -78.074
  C     -143.448      55.729     -77.181
  N     -143.100      54.888     -76.186
  C     -143.886      53.795     -76.184
  C     -144.943      53.522     -77.036
  C     -145.230      54.492     -78.014
  N     -146.283      54.389     -78.895
  N     -145.538      52.318     -76.709
  C     -144.852      51.882     -75.670
  N     -143.841      52.739     -75.316
  O     -141.707      47.410     -70.946
  O     -141.391      46.607     -73.331
  H     -143.093      54.820     -72.726
  H     -141.617      45.795     -72.837
  H     -142.847      56.630     -77.274
  H     -145.057      50.969     -75.126
  H     -142.151      53.345     -74.286
  H     -144.733      52.495     -72.824
  H     -143.335      52.128     -70.873
  H     -141.367      50.797     -72.330
  H     -143.175      49.580     -71.157
  H     -146.465      55.179     -79.495
  H     -146.947      53.638     -78.784
  H     -144.305      49.986     -72.457
  P     -141.204      53.621     -70.203
  C     -138.705      53.647     -70.745
  O     -139.839      54.427     -70.413
  O     -141.161      52.584     -69.131
  O     -142.267      54.774     -69.862
  H     -142.262      54.943     -68.902
  H     -138.333      53.136     -69.852
  H     -137.921      54.304     -71.133
  H     -138.953      52.903     -71.511
  H     -138.176      48.935     -72.640
  H     -138.772      47.340     -73.036
  H     -138.811      47.902     -71.382

 3  4  5  6  7  8  9  10  11  12  22  25  29  30  31  32 0
 6-311+G(2d,p)
 ****
 33  36  37 0
 6-311+G(2d,p)
 ****
 1  2  13  14  15  16  17  18  19  20  21  23  24  26 0
 3-21G
 ****
 27  28  34  35  38  39  40  41  42  43  44  45  46  47  48 0
 3-21G
 ****


