%nproc=1
%NoSave
%Mem=1900MB
#P OB98/GEN NMR

erre ene a

0 1
  C      142.938    -425.968    -155.482
  O      143.721    -426.884    -154.742
  H      143.505    -425.040    -155.601
  H      142.004    -425.743    -154.963
  H      142.726    -426.373    -156.474
  P      143.011    -428.218    -154.197
  C      142.393    -429.125    -151.862
  O      143.067    -428.105    -152.591
  C      143.036    -429.352    -150.494
  O      144.330    -429.974    -150.634
  C      143.306    -428.070    -149.719
  O      142.150    -427.378    -149.298
  C      144.308    -428.543    -148.675
  O      143.680    -429.161    -147.556
  C      145.112    -429.592    -149.478
  N      146.436    -429.109    -149.862
  C      147.474    -429.426    -148.991
  O      147.316    -430.054    -147.942
  N      148.709    -428.966    -149.346
  C      148.993    -428.198    -150.440
  O      150.127    -427.799    -150.697
  C      147.849    -427.863    -151.305
  C      146.638    -428.331    -150.983
  O      143.556    -429.508    -154.734
  O      141.460    -427.987    -154.521
  H      144.379    -429.623    -147.057
  H      140.954    -428.832    -154.458
  H      149.482    -429.195    -148.738
  H      148.037    -427.247    -152.172
  H      145.780    -428.097    -151.604
  H      145.247    -430.508    -148.885
  H      144.922    -427.724    -148.292
  H      143.845    -427.377    -150.376
  H      142.397    -430.033    -149.927
  H      142.455    -430.052    -152.448
  H      141.336    -428.852    -151.745
  P      142.184    -426.012    -148.479
  C      142.523    -425.350    -145.973
  O      142.706    -426.321    -146.993
  O      141.002    -425.109    -148.634
  O      143.460    -425.269    -149.139
  H      143.264    -424.307    -149.134
  H      142.927    -425.718    -145.053
  H      141.478    -425.154    -145.850
  H      143.026    -424.446    -146.247

 6  7  8  9  10  11  12  13  14  15  16  26  31  32  33  34  35 0
 6-311+G(2d,p)
 ****
 36  37 0
 6-311+G(2d,p)
 ****
 1  2  3  4  5  17  18  19  20  21  22  23  24  25 0
 3-21G
 ****
 27  28  29  30  38  39  40  41  42  43  44  45 0
 3-21G
 ****


