%nproc=1
%NoSave
%Mem=1900MB
#P OB98/GEN NMR

erre ene a

0 1
  C     -454.908     767.822    -898.950
  O     -453.803     768.179    -898.130
  H     -454.603     767.865    -900.000
  H     -455.734     768.528    -898.800
  H     -455.240     766.809    -898.710
  P     -453.992     768.022    -896.550
  C     -452.332     765.993    -896.310
  O     -452.647     767.348    -895.980
  C     -450.828     765.825    -896.440
  O     -450.304     766.523    -897.600
  C     -450.037     766.409    -895.270
  O     -450.184     765.667    -894.080
  C     -448.632     766.397    -895.850
  O     -448.052     765.079    -895.770
  C     -448.897     766.796    -897.320
  N     -448.547     768.190    -897.590
  C     -447.810     768.412    -898.770
  O     -447.510     767.444    -899.500
  N     -447.424     769.679    -899.060
  C     -447.764     770.659    -898.280
  N     -447.317     771.919    -898.630
  C     -448.561     770.469    -897.050
  C     -448.938     769.229    -896.780
  O     -455.069     766.849    -896.430
  O     -454.359     769.265    -895.820
  H     -447.203     765.114    -896.260
  H     -454.819     766.043    -896.930
  H     -448.825     771.326    -896.440
  H     -449.497     768.997    -895.890
  H     -448.329     766.152    -898.000
  H     -447.952     767.052    -895.320
  H     -450.320     767.462    -895.130
  H     -450.603     764.757    -896.560
  H     -446.756     771.986    -899.480
  H     -452.837     765.689    -897.250
  H     -447.493     772.738    -898.080
  H     -452.724     765.356    -895.520
  P     -449.803     766.299    -892.660
  C     -452.100     767.354    -892.170
  O     -451.174     766.365    -891.780
  O     -449.072     767.600    -892.750
  O     -448.980     765.120    -891.930
  H     -449.488     764.297    -891.820
  H     -452.958     767.311    -891.532
  H     -452.400     767.182    -893.183
  H     -451.645     768.319    -892.092

 6  7  8  9  10  11  12  13  14  15  16  26  30  31  32  33  35 0
 6-311+G(2d,p)
 ****
 37  38 0
 6-311+G(2d,p)
 ****
 1  2  3  4  5  17  18  19  20  21  22  23  24  25 0
 3-21G
 ****
 27  28  29  34  36  39  40  41  42  43  44  45  46 0
 3-21G
 ****


