%nproc=1
%NoSave
%Mem=1900MB
#P OB98/GEN NMR

erre ene a

0 1
  C      427.700    -497.696    -585.679
  O      429.005    -497.971    -585.191
  P      429.222    -499.380    -584.449
  C      430.110    -500.722    -586.510
  O      429.062    -500.509    -585.574
  C      430.772    -502.072    -586.241
  O      431.675    -501.968    -585.110
  C      429.800    -503.194    -585.909
  O      429.248    -503.743    -587.089
  C      430.708    -504.167    -585.145
  O      431.480    -504.966    -586.057
  C      431.607    -503.209    -584.350
  N      432.236    -504.311    -579.458
  C      432.777    -504.910    -580.582
  N      433.653    -505.918    -580.366
  N      432.494    -504.549    -581.806
  C      431.596    -503.536    -581.868
  C      430.978    -502.873    -580.835
  C      431.342    -503.251    -579.485
  O      430.966    -502.688    -578.458
  N      430.108    -501.920    -581.286
  C      430.228    -501.982    -582.598
  N      431.132    -502.932    -583.005
  O      427.900    -499.527    -583.558
  O      430.475    -499.487    -583.646
  H      432.160    -505.454    -585.558
  H      428.081    -499.261    -582.633
  H      432.498    -504.620    -578.539
  H      429.699    -501.356    -583.300
  H      432.628    -503.588    -584.256
  H      430.129    -504.865    -584.525
  H      433.897    -506.264    -579.452
  H      429.007    -502.830    -585.238
  H      434.052    -506.369    -581.178
  H      431.377    -502.331    -587.122
  H      430.847    -499.929    -586.413
  H      429.695    -500.696    -587.523
  P      428.028    -504.773    -586.934
  C      426.431    -502.738    -587.221
  O      426.741    -503.922    -586.495
  O      428.403    -505.594    -585.607
  O      427.827    -505.682    -588.101
  H      428.121    -506.525    -585.709
  H      425.348    -502.584    -587.187
  H      426.748    -502.811    -588.266
  H      426.925    -501.892    -586.752
  H      427.690    -496.734    -586.148
  H      427.006    -497.703    -584.865
  H      427.421    -498.443    -586.392

 3  4  5  6  7  8  9  10  11  12  23  26  30  31 0
 6-311+G(2d,p)
 ****
 33  35  36  37  38 0
 6-311+G(2d,p)
 ****
 1  2  13  14  15  16  17  18  19  20  21  22  24  25 0
 3-21G
 ****
 27  28  29  32  34  39  40  41  42  43  44  45  46  47  48  49 0
 3-21G
 ****


