%nproc=1
%NoSave
%Mem=1900MB
#P OB98/GEN NMR

erre ene a

0 1
  C      858.550    -358.744      35.048
  O      859.167    -357.517      35.379
  H      859.258    -359.353      34.481
  H      857.673    -358.560      34.428
  H      858.261    -359.297      35.945
  P      858.466    -356.563      36.457
  C      860.166    -356.489      38.405
  O      859.655    -355.829      37.251
  C      861.527    -355.920      38.800
  O      862.549    -356.493      37.925
  C      861.630    -354.391      38.682
  O      862.544    -353.943      39.676
  C      862.230    -354.233      37.299
  O      862.775    -352.939      37.115
  C      863.228    -355.395      37.274
  N      863.666    -355.737      35.923
  C      865.031    -355.693      35.673
  O      865.860    -355.344      36.530
  N      865.427    -356.003      34.404
  C      864.598    -356.297      33.356
  O      865.007    -356.534      32.236
  C      863.148    -356.294      33.666
  C      862.755    -356.023      34.923
  O      857.440    -357.207      37.327
  O      857.842    -355.369      35.584
  H      863.451    -352.752      37.801
  H      857.048    -355.019      36.019
  H      866.411    -355.972      34.213
  H      862.463    -356.511      32.855
  H      861.698    -356.003      35.167
  H      864.115    -355.154      37.865
  H      861.463    -354.362      36.520
  H      860.668    -353.888      38.789
  H      861.760    -356.248      39.815
  H      860.258    -357.555      38.161
  H      859.459    -356.374      39.235
  P      862.595    -352.413      40.182
  C      862.177    -352.595      42.728
  O      863.139    -352.388      41.694
  O      861.304    -351.664      39.988
  O      863.777    -351.738      39.341
  H      863.599    -350.781      39.241
  H      862.663    -352.555      43.680
  H      861.718    -353.553      42.602
  H      861.429    -351.832      42.677

 6  7  8  9  10  11  12  13  14  15  16  26  31  32  33  34  35 0
 6-311+G(2d,p)
 ****
 36  37 0
 6-311+G(2d,p)
 ****
 1  2  3  4  5  17  18  19  20  21  22  23  24  25 0
 3-21G
 ****
 27  28  29  30  38  39  40  41  42  43  44  45 0
 3-21G
 ****


