%nproc=1
%NoSave
%Mem=1900MB
#P OB98/GEN NMR

erre ene a

0 1
  C      801.479     535.529     468.703
  O      801.324     535.173     470.067
  P      802.334     535.842     471.121
  C      804.790     535.347     471.885
  O      803.621     534.869     471.199
  C      805.607     534.184     472.429
  O      804.878     533.531     473.512
  C      805.976     533.134     471.393
  O      807.301     532.663     471.666
  C      805.010     532.012     471.652
  O      805.491     530.745     471.206
  C      804.827     532.131     473.184
  N      803.582     531.514     473.654
  C      803.532     530.123     473.689
  O      804.484     529.452     473.252
  N      802.403     529.496     474.154
  C      801.357     530.224     474.460
  N      800.263     529.559     474.932
  C      801.326     531.696     474.347
  C      802.465     532.251     473.958
  O      801.603     535.606     472.522
  O      802.633     537.283     470.871
  H      804.944     530.046     471.622
  H      801.794     536.334     473.141
  H      800.426     532.239     474.575
  H      802.561     533.329     473.854
  H      805.666     531.618     473.708
  H      804.047     532.200     471.158
  H      805.935     533.506     470.363
  H      806.525     534.600     472.894
  H      800.303     528.549     474.994
  H      804.462     535.964     472.719
  H      799.410     530.039     475.190
  H      805.365     535.957     471.210
  P      808.203     532.179     470.423
  C      808.030     529.999     469.058
  O      807.332     531.066     469.688
  O      809.306     531.267     471.175
  O      808.864     533.229     469.583
  H      809.962     530.952     470.527
  H      807.316     529.264     468.713
  H      808.721     529.530     469.785
  H      808.607     530.385     468.211
  H      800.747     535.015     468.115
  H      802.459     535.255     468.372
  H      801.348     536.585     468.593

 3  4  5  6  7  8  9  10  11  12  13  21  23  27  28  29  30  32 0
 6-311+G(2d,p)
 ****
 34  35 0
 6-311+G(2d,p)
 ****
 1  2  14  15  16  17  18  19  20  22  24  25  26 0
 3-21G
 ****
 31  33  36  37  38  39  40  41  42  43  44  45  46 0
 3-21G
 ****


