%nproc=1
%NoSave
%Mem=1900MB
#P OB98/GEN NMR

erre ene a

0 1
  C      -24.212    -862.527      99.819
  O      -22.858    -862.167      99.627
  H      -24.831    -861.943      99.135
  H      -24.513    -862.304     100.845
  H      -24.363    -863.591      99.609
  P      -21.749    -863.066     100.354
  C      -22.547    -862.128     102.644
  O      -22.252    -863.275     101.867
  C      -22.993    -862.542     104.049
  O      -21.920    -863.310     104.663
  C      -23.306    -861.364     104.978
  O      -24.402    -861.736     105.823
  C      -22.053    -861.240     105.820
  O      -22.252    -860.600     107.072
  C      -21.646    -862.717     105.950
  N      -20.246    -862.885     106.329
  C      -19.972    -863.695     107.424
  O      -20.812    -864.349     108.049
  N      -18.654    -863.746     107.806
  C      -17.622    -863.066     107.227
  O      -16.465    -863.137     107.632
  C      -17.978    -862.221     106.078
  C      -19.254    -862.173     105.692
  O      -20.517    -862.055     100.514
  O      -21.371    -864.323      99.646
  H      -19.935    -862.105      99.731
  H      -21.369    -860.458     107.471
  H      -18.436    -864.329     108.596
  H      -17.186    -861.656     105.606
  H      -19.552    -861.537     104.858
  H      -22.293    -863.219     106.684
  H      -21.284    -860.682     105.269
  H      -23.544    -860.430     104.457
  H      -23.854    -863.214     103.959
  H      -23.352    -861.562     102.167
  H      -21.656    -861.489     102.701
  P      -25.848    -861.126     105.473
  C      -26.034    -859.463     107.495
  O      -25.851    -859.646     106.098
  O      -26.785    -861.972     106.445
  O      -26.182    -861.223     104.022
  H      -26.362    -862.180     107.298
  H      -26.007    -858.418     107.724
  H      -25.252    -859.965     108.026
  H      -26.981    -859.868     107.787

 6  7  8  9  10  11  12  13  14  15  16  27  31  32  33  34  35 0
 6-311+G(2d,p)
 ****
 36  37 0
 6-311+G(2d,p)
 ****
 1  2  3  4  5  17  18  19  20  21  22  23  24  25 0
 3-21G
 ****
 26  28  29  30  38  39  40  41  42  43  44  45 0
 3-21G
 ****


