%nproc=1
%NoSave
%Mem=1900MB
#P OB98/GEN NMR

erre ene a

0 1
  C      -44.134     254.688     429.255
  O      -44.898     253.622     429.783
  H      -43.782     255.317     430.080
  H      -44.772     255.295     428.600
  H      -43.276     254.317     428.695
  P      -45.181     252.370     428.816
  C      -45.913     250.676     430.639
  O      -46.309     251.479     429.539
  C      -47.083     250.501     431.613
  O      -47.377     251.799     432.217
  C      -48.375     249.982     430.968
  O      -49.034     249.096     431.885
  C      -49.213     251.242     430.829
  O      -50.607     250.959     430.749
  C      -48.800     251.990     432.092
  N      -52.642     255.184     432.604
  C      -52.536     253.848     432.938
  N      -53.635     253.255     433.437
  N      -51.433     253.158     432.804
  C      -50.398     253.883     432.315
  C      -50.378     255.204     431.933
  C      -51.607     255.962     432.076
  O      -51.772     257.136     431.776
  N      -49.151     255.552     431.429
  C      -48.439     254.440     431.475
  N      -49.155     253.397     432.006
  O      -43.848     251.496     428.971
  O      -45.457     252.714     427.389
  H      -50.902     250.628     431.618
  H      -43.221     251.717     428.254
  H      -53.520     255.668     432.719
  H      -47.421     254.331     431.127
  H      -49.285     251.592     432.997
  H      -48.916     251.788     429.926
  H      -54.512     253.722     433.610
  H      -48.212     249.468     430.012
  H      -53.565     252.286     433.733
  H      -46.755     249.831     432.430
  H      -45.084     251.168     431.160
  H      -45.577     249.701     430.281
  P      -48.695     247.533     431.809
  C      -49.110     247.250     434.362
  O      -49.392     246.791     433.053
  O      -47.136     247.483     432.182
  O      -48.954     246.921     430.467
  H      -46.696     246.765     431.682
  H      -49.647     246.656     435.072
  H      -49.410     248.273     434.453
  H      -48.060     247.168     434.550

 6  7  8  9  10  11  12  13  14  15  26  29  33  34 0
 6-311+G(2d,p)
 ****
 36  38  39  40  41 0
 6-311+G(2d,p)
 ****
 1  2  3  4  5  16  17  18  19  20  21  22  23  24  25 0
 3-21G
 ****
 27  28  30  31  32  35  37  42  43  44  45  46  47 0
 3-21G
 ****
 48  49 0
 3-21G
 ****


