%nproc=1
%NoSave
%Mem=1900MB
#P OB98/GEN NMR

erre ene a

0 1
  C       51.853     -81.174     258.809
  O       50.827     -82.029     258.298
  P       50.877     -82.481     256.762
  C       48.403     -82.445     256.015
  O       49.662     -81.783     255.974
  C       47.524     -82.022     254.816
  O       46.993     -80.690     255.039
  C       48.297     -82.008     253.486
  O       47.637     -82.742     252.446
  C       48.520     -80.528     253.220
  O       48.725     -80.237     251.843
  C       47.300     -79.880     253.889
  N       47.553     -78.475     254.244
  C       47.638     -77.570     253.192
  O       47.595     -77.911     252.006
  N       47.849     -76.259     253.545
  C       48.046     -75.794     254.806
  O       48.276     -74.617     255.072
  C       48.006     -76.809     255.878
  C       47.761     -78.083     255.548
  O       51.018     -83.951     256.523
  O       52.152     -81.685     256.196
  H       48.762     -79.262     251.734
  H       52.620     -82.280     255.569
  H       47.902     -75.590     252.794
  H       48.181     -76.476     256.895
  H       47.735     -78.851     256.314
  H       46.432     -79.890     253.215
  H       49.424     -80.209     253.755
  H       49.271     -82.507     253.578
  H       46.688     -82.731     254.768
  H       47.882     -82.183     256.935
  H       48.557     -83.525     256.036
  P       48.007     -84.230     252.010
  C       47.849     -83.767     249.458
  O       48.659     -84.184     250.545
  O       46.930     -85.251     252.180
  O       49.257     -84.583     252.957
  H       49.175     -85.510     253.258
  H       48.297     -84.140     248.526
  H       47.805     -82.677     249.424
  H       46.829     -84.172     249.539
  H       51.667     -80.973     259.843
  H       51.857     -80.255     258.262
  H       52.803     -81.655     258.704

 3  4  5  6  7  8  9  10  11  12  13  23  28  29  30  31  32 0
 6-311+G(2d,p)
 ****
 33  34 0
 6-311+G(2d,p)
 ****
 1  2  14  15  16  17  18  19  20  21  22  24  25  26  27 0
 3-21G
 ****
 35  36  37  38  39  40  41  42  43  44  45 0
 3-21G
 ****


