%nproc=1
%NoSave
%Mem=1900MB
#P OB98/GEN NMR

erre ene a

0 1
  C     -283.587    -533.835     184.889
  O     -283.076    -534.875     184.075
  H     -284.009    -534.279     185.794
  H     -284.373    -533.298     184.356
  H     -282.789    -533.146     185.171
  P     -282.394    -534.420     182.692
  C     -284.733    -534.478     181.542
  O     -283.558    -533.735     181.825
  C     -285.928    -533.535     181.337
  O     -285.849    -532.973     179.987
  C     -287.299    -534.227     181.450
  O     -288.247    -533.249     181.915
  C     -287.586    -534.578     179.997
  O     -288.946    -534.935     179.827
  C     -287.094    -533.303     179.332
  N     -287.767    -531.067     174.770
  C     -288.024    -530.648     176.031
  N     -287.804    -531.288     177.199
  C     -287.241    -532.491     176.974
  C     -286.911    -533.056     175.751
  C     -287.207    -532.289     174.601
  N     -286.950    -532.729     173.328
  N     -286.355    -534.314     175.935
  C     -286.353    -534.501     177.233
  N     -286.877    -533.430     177.905
  O     -282.123    -535.811     181.941
  O     -281.142    -533.616     182.827
  H     -289.108    -535.834     180.178
  H     -281.208    -536.107     182.108
  H     -288.469    -529.649     176.111
  H     -285.978    -535.377     177.742
  H     -287.780    -532.461     179.484
  H     -286.994    -535.439     179.684
  H     -287.294    -535.081     182.134
  H     -285.841    -532.694     182.030
  H     -284.933    -535.147     182.390
  H     -284.583    -535.077     180.632
  H     -287.207    -532.124     172.560
  H     -286.545    -533.646     173.188
  P     -288.813    -533.350     183.413
  C     -291.094    -534.493     182.855
  O     -289.830    -534.586     183.504
  O     -289.804    -532.094     183.486
  O     -287.788    -533.276     184.505
  H     -289.865    -531.785     184.400
  H     -291.644    -535.397     183.014
  H     -290.946    -534.346     181.806
  H     -291.642    -533.667     183.257

 6  7  8  9  10  11  12  13  14  15  25  28  32  33  34  35 0
 6-311+G(2d,p)
 ****
 36  37  40 0
 6-311+G(2d,p)
 ****
 1  2  3  4  5  16  17  18  19  20  21  22  23  24 0
 3-21G
 ****
 26  27  29  30  31  38  39 41  42  43  44  45  46  47  48 0
 3-21G
 ****


