%nproc=1
%NoSave
%Mem=1900MB
#P OB98/GEN NMR

erre ene a

0 1
  C     -396.618    -157.600      68.608
  O     -397.247    -156.619      67.809
  H     -396.554    -158.527      68.033
  H     -397.215    -157.785      69.505
  H     -395.612    -157.292      68.892
  P     -397.186    -155.088      68.279
  C     -395.454    -154.392      66.492
  O     -395.735    -154.530      67.877
  C     -395.368    -152.911      66.098
  O     -394.176    -152.338      66.692
  C     -395.239    -152.741      64.579
  O     -395.774    -151.499      64.133
  C     -393.731    -152.734      64.372
  O     -393.336    -152.091      63.159
  C     -393.255    -152.019      65.633
  N     -388.314    -150.760      65.607
  C     -389.363    -150.194      64.906
  N     -389.054    -149.154      64.096
  N     -390.596    -150.626      64.979
  C     -390.746    -151.714      65.768
  C     -389.780    -152.376      66.491
  C     -388.424    -151.869      66.434
  O     -387.455    -152.349      67.014
  N     -390.308    -153.446      67.171
  C     -391.590    -153.434      66.856
  N     -391.908    -152.386      66.027
  O     -397.089    -155.185      69.875
  O     -398.339    -154.234      67.847
  H     -393.382    -151.130      63.311
  H     -397.390    -154.356      70.283
  H     -387.392    -150.374      65.536
  H     -392.324    -154.147      67.210
  H     -393.271    -150.932      65.491
  H     -393.390    -153.772      64.314
  H     -388.098    -148.927      63.868
  H     -395.706    -153.551      64.025
  H     -389.731    -148.940      63.358
  H     -396.223    -152.364      66.511
  H     -396.267    -154.886      65.952
  H     -394.532    -154.916      66.238
  P     -397.343    -151.410      63.817
  C     -398.346    -150.948      66.220
  O     -398.181    -151.806      65.115
  O     -397.594    -152.625      62.812
  O     -397.782    -150.100      63.233
  H     -397.869    -152.293      61.936
  H     -398.944    -151.434      66.962
  H     -398.831    -150.048      65.904
  H     -397.388    -150.710      66.633

 6  7  8  9  10  11  12  13  14  15  26  29  33  34 0
 6-311+G(2d,p)
 ****
 36  38  39  40  41 0
 6-311+G(2d,p)
 ****
 1  2  3  4  5  16  17  18  19  20  21  22  23  24  25 0
 3-21G
 ****
 27  28  30  31  32  35  37  42  43  44  45  46  47 0
 3-21G
 ****
 48  49 0
 3-21G
 ****


