%nproc=1
%NoSave
%Mem=1900MB
#P OB98/GEN NMR

erre ene a

0 1
  C     -314.121     674.284     -35.877
  O     -314.262     673.390     -34.776
  P     -313.396     673.704     -33.456
  C     -313.296     671.289     -32.494
  O     -313.848     672.601     -32.375
  C     -313.828     670.382     -31.402
  O     -313.381     670.859     -30.111
  C     -315.350     670.318     -31.305
  O     -315.903     669.428     -32.267
  C     -315.535     669.791     -29.888
  O     -315.377     668.359     -29.883
  C     -314.381     670.460     -29.130
  N     -317.373     672.227     -25.444
  C     -317.227     670.941     -25.924
  N     -317.966     669.984     -25.324
  N     -316.430     670.625     -26.920
  C     -315.722     671.663     -27.391
  C     -315.772     672.994     -27.000
  C     -316.703     673.341     -25.937
  O     -316.912     674.467     -25.511
  N     -314.891     673.761     -27.702
  C     -314.275     672.907     -28.502
  N     -314.767     671.633     -28.374
  O     -314.051     675.053     -32.909
  O     -311.925     673.848     -33.674
  H     -314.491     668.166     -30.228
  H     -313.400     675.545     -32.369
  H     -317.982     672.413     -24.669
  H     -313.479     673.178     -29.192
  H     -313.884     669.756     -28.452
  H     -316.526     670.010     -29.479
  H     -318.497     670.149     -24.485
  H     -315.793     671.318     -31.383
  H     -317.848     669.028     -25.644
  H     -313.405     669.378     -31.550
  H     -312.199     671.350     -32.412
  H     -313.548     670.889     -33.483
  P     -316.608     670.101     -33.546
  C     -318.734     668.657     -33.131
  O     -317.691     669.041     -34.032
  O     -315.467     670.037     -34.660
  O     -317.102     671.497     -33.312
  H     -315.604     670.753     -35.326
  H     -319.055     669.508     -32.527
  H     -318.378     667.854     -32.495
  H     -319.581     668.303     -33.717
  H     -314.748     673.960     -36.682
  H     -313.101     674.293     -36.201
  H     -314.408     675.270     -35.575

 3  4  5  6  7  8  9  10  11  12  23  26  30  31  33  0
 6-311+G(2d,p)
 ****
 35  36  37  38 0
 6-311+G(2d,p)
 ****
 1  2  13  14  15  16  17  18  19  20  21  22  24  25  27  28  29 0
 3-21G
 ****
 32  34  39  40  41  42  43  44  45  46  47  48  49 0
 3-21G
 ****


