%nproc=1
%NoSave
%Mem=1900MB
#P OB98/GEN NMR

erre ene a

0 1
  C     -393.239    -544.391     518.066
  O     -392.452    -545.018     517.076
  H     -393.726    -545.166     518.664
  H     -394.011    -543.769     517.609
  H     -392.618    -543.785     518.727
  P     -391.668    -544.097     516.019
  C     -393.634    -543.900     514.354
  O     -392.775    -543.212     515.267
  C     -394.067    -542.950     513.223
  O     -394.837    -543.732     512.264
  C     -394.942    -541.800     513.730
  O     -394.473    -540.520     513.323
  C     -396.349    -542.215     513.290
  O     -397.245    -541.137     513.101
  C     -396.087    -543.055     512.033
  N     -397.145    -544.020     511.745
  C     -398.373    -543.520     511.330
  O     -398.641    -542.333     511.182
  N     -399.344    -544.458     511.080
  C     -399.210    -545.817     511.211
  O     -400.110    -546.605     510.963
  C     -397.896    -546.287     511.675
  C     -396.942    -545.382     511.919
  O     -390.724    -544.816     515.117
  O     -390.909    -543.018     516.927
  H     -398.123    -541.530     512.886
  H     -389.957    -543.242     516.964
  H     -400.231    -544.114     510.764
  H     -397.753    -547.351     511.807
  H     -395.953    -545.691     512.261
  H     -395.970    -542.420     511.157
  H     -396.779    -542.861     514.065
  H     -394.922    -541.739     514.822
  H     -393.175    -542.589     512.705
  H     -394.507    -544.251     514.917
  H     -393.110    -544.768     513.937
  P     -393.224    -539.757     513.959
  C     -394.622    -537.961     515.284
  O     -393.700    -539.048     515.310
  O     -392.412    -538.928     513.010
  O     -392.274    -540.941     514.490
  H     -391.350    -540.624     514.411
  H     -394.811    -537.629     516.284
  H     -395.539    -538.282     514.835
  H     -394.208    -537.156     514.713

 6  7  8  9  10  11  12  13  14  15  16  26  31  32  33  34  35 0
 6-311+G(2d,p)
 ****
 36  37 0
 6-311+G(2d,p)
 ****
 1  2  3  4  5  17  18  19  20  21  22  23  24  25 0
 3-21G
 ****
 27  28  29  30  38  39  40  41  42  43  44  45 0
 3-21G
 ****


