%nproc=1
%NoSave
%Mem=1900MB
#P OB98/GEN NMR

erre ene a

0 1
  C      519.890    -896.946     -39.682
  O      519.003    -897.209     -38.617
  H      519.315    -896.914     -40.615
  H      520.639    -897.738     -39.768
  H      520.381    -895.981     -39.543
  P      519.605    -897.376     -37.142
  C      518.251    -895.859     -35.550
  O      519.397    -895.973     -36.391
  C      517.334    -894.740     -36.063
  O      516.977    -895.058     -37.438
  C      516.042    -894.624     -35.243
  O      515.797    -893.296     -34.772
  C      514.986    -895.246     -36.154
  O      513.670    -894.775     -35.948
  C      515.544    -894.977     -37.559
  N      515.067    -895.915     -38.572
  C      513.762    -895.750     -39.034
  O      512.994    -894.862     -38.672
  N      513.344    -896.658     -39.972
  C      514.078    -897.702     -40.470
  O      513.653    -898.476     -41.310
  C      515.438    -897.831     -39.923
  C      515.860    -896.956     -39.009
  O      520.991    -897.929     -37.067
  O      518.553    -898.334     -36.401
  H      513.091    -895.233     -36.596
  H      518.912    -899.242     -36.357
  H      512.409    -896.541     -40.325
  H      516.040    -898.657     -40.290
  H      516.859    -897.027     -38.591
  H      515.288    -893.971     -37.890
  H      514.982    -896.330     -35.973
  H      516.107    -895.209     -34.322
  H      517.897    -893.798     -36.076
  H      518.602    -895.628     -34.541
  H      517.705    -896.807     -35.534
  P      516.659    -892.563     -33.642
  C      517.745    -890.627     -35.024
  O      517.904    -891.856     -34.345
  O      516.937    -893.371     -32.415
  O      515.720    -891.326     -33.205
  H      515.886    -891.174     -32.250
  H      518.687    -890.317     -35.425
  H      517.387    -889.886     -34.341
  H      517.041    -890.748     -35.820

 6  7  8  9  10  11  12  13  14  15  16  26  31  32  33  34  35 0
 6-311+G(2d,p)
 ****
 36  37 0
 6-311+G(2d,p)
 ****
 1  2  3  4  5  17  18  19  20  21  22  23  24  25 0
 3-21G
 ****
 27  28  29  30  38  39  40  41  42  43  44  45 0
 3-21G
 ****


