%nproc=1
%NoSave
%Mem=1900MB
#P OB98/GEN NMR

erre ene a

0 1
  C      323.802     524.371     457.083
  O      323.140     523.937     458.258
  H      323.228     524.030     456.216
  H      324.803     523.939     457.027
  H      323.861     525.461     457.061
  P      323.820     524.241     459.677
  C      322.739     526.591     459.655
  O      323.935     525.832     459.793
  C      322.578     527.563     460.825
  O      323.773     528.361     460.976
  C      321.434     528.554     460.667
  O      320.191     527.932     460.898
  C      321.835     529.614     461.688
  O      321.503     529.189     463.019
  C      323.363     529.662     461.495
  N      323.819     530.732     460.604
  C      323.721     532.028     461.115
  O      323.265     532.224     462.246
  N      324.123     533.076     460.317
  C      324.620     532.844     459.147
  N      325.010     533.924     458.397
  C      324.776     531.479     458.588
  C      324.346     530.485     459.354
  O      325.087     523.505     459.969
  O      322.670     523.878     460.739
  H      321.783     529.928     463.607
  H      322.773     522.962     461.049
  H      325.210     531.332     457.600
  H      324.425     529.459     459.025
  H      323.873     529.780     462.464
  H      321.329     530.574     461.512
  H      321.462     529.012     459.668
  H      322.467     526.973     461.749
  H      324.907     534.836     458.838
  H      321.899     525.874     459.646
  H      325.556     533.858     457.555
  H      322.732     527.136     458.710
  P      318.829     528.483     460.255
  C      318.729     526.772     458.334
  O      318.918     528.128     458.675
  O      318.527     529.919     460.550
  O      317.715     527.457     460.774
  H      317.485     527.660     461.718
  H      318.809     526.657     457.273
  H      317.759     526.455     458.655
  H      319.476     526.176     458.815

 6  7  8  9  10  11  12  13  14  15  16  26  30  31  32  33  35 0
 6-311+G(2d,p)
 ****
 37  38 0
 6-311+G(2d,p)
 ****
 1  2  3  4  5  17  18  19  20  21  22  23  24  25 0
 3-21G
 ****
 27  28  29  34  36  39  40  41  42  43  44  45  46 0
 3-21G
 ****


