%nproc=1
%NoSave
%Mem=1900MB
#P OB98/GEN NMR

erre ene a

0 1
  C      469.634     -11.930     158.943
  O      470.710     -12.194     159.820
  P      471.941     -11.171     159.923
  C      473.542     -11.985     158.084
  O      472.579     -11.001     158.464
  C      474.370     -11.494     156.900
  O      473.527     -11.272     155.747
  C      475.074     -10.165     157.136
  O      476.179     -10.299     158.012
  C      475.428      -9.765     155.709
  O      476.606     -10.444     155.265
  C      474.191     -10.271     154.931
  N      473.282      -9.192     154.573
  C      473.571      -8.519     153.383
  O      474.586      -8.789     152.742
  N      472.698      -7.547     152.952
  C      471.701      -7.194     153.707
  N      470.841      -6.269     153.202
  C      471.462      -7.771     155.041
  C      472.267      -8.771     155.401
  O      472.920     -11.461     161.010
  O      471.236      -9.747     160.164
  H      471.662      -9.310     160.925
  H      476.809     -10.099     154.375
  H      470.656      -7.394     155.662
  H      472.146      -9.273     156.356
  H      474.507     -10.788     154.021
  H      475.612      -8.687     155.616
  H      474.363      -9.442     157.556
  H      475.099     -12.278     156.652
  H      471.028      -5.912     152.273
  H      473.015     -12.906     157.814
  H      469.882      -6.167     153.544
  H      474.191     -12.201     158.941
  P      476.402      -9.127     159.081
  C      478.193      -7.830     157.738
  O      476.886      -7.829     158.280
  O      477.711      -9.595     159.878
  O      475.255      -8.910     160.016
  H      477.637      -9.349     160.813
  H      478.244      -7.069     156.955
  H      478.449      -8.803     157.300
  H      478.910      -7.578     158.521
  H      468.915     -12.719     159.013
  H      469.999     -11.868     157.939
  H      469.173     -11.003     159.213

 3  4  5  6  7  8  9  10  11  12  13  24  27  28  29  30  32 0
 6-311+G(2d,p)
 ****
 34  35 0
 6-311+G(2d,p)
 ****
 1  2  14  15  16  17  18  19  20  21  22  23  25  26 0
 3-21G
 ****
 31  33  36  37  38  39  40  41  42  43  44  45  46 0
 3-21G
 ****


