%nproc=1
%NoSave
%Mem=1900MB
#P OB98/GEN NMR

erre ene a

0 1
  C     -507.161      72.873      44.617
  O     -506.294      72.767      43.508
  P     -504.741      73.118      43.733
  C     -505.000      75.710      43.589
  O     -504.673      74.582      44.390
  C     -504.336      76.961      44.179
  O     -504.789      77.187      45.532
  C     -502.818      76.859      44.264
  O     -502.201      77.095      43.012
  C     -502.499      77.925      45.309
  O     -502.429      79.233      44.703
  C     -503.719      77.822      46.252
  N     -503.413      77.122      47.499
  C     -503.295      77.925      48.635
  O     -503.427      79.152      48.605
  N     -502.994      77.274      49.796
  C     -502.743      75.939      49.935
  O     -502.421      75.420      50.990
  C     -502.844      75.145      48.691
  C     -503.162      75.767      47.548
  O     -504.179      73.341      42.252
  O     -503.976      72.070      44.472
  H     -502.255      79.862      45.435
  H     -503.253      73.009      42.199
  H     -502.936      77.833      50.636
  H     -502.655      74.086      48.760
  H     -503.233      75.201      46.627
  H     -504.087      78.831      46.505
  H     -501.537      77.753      45.806
  H     -502.532      75.875      44.671
  H     -504.623      77.829      43.568
  H     -506.081      75.844      43.570
  H     -504.648      75.540      42.566
  P     -501.365      75.883      42.372
  C     -499.129      76.977      43.175
  O     -499.984      75.851      43.190
  O     -500.996      76.501      40.940
  O     -502.137      74.603      42.322
  H     -500.874      77.463      40.981
  H     -499.695      77.915      43.151
  H     -498.475      76.921      42.297
  H     -498.513      76.963      44.075
  H     -508.155      72.611      44.319
  H     -507.152      73.879      44.982
  H     -506.834      72.210      45.390

 3  4  5  6  7  8  9  10  11  12  13  23  28  29  30  31  32 0
 6-311+G(2d,p)
 ****
 33  34 0
 6-311+G(2d,p)
 ****
 1  2  14  15  16  17  18  19  20  21  22  24  25  26 0
 3-21G
 ****
 27  35  36  37  38  39  40  41  42  43  44  45 0
 3-21G
 ****


