%nproc=1
%NoSave
%Mem=1900MB
#P OB98/GEN NMR

erre ene a

0 1
  C      133.062    -189.930    -185.870
  O      133.795    -188.831    -186.392
  P      133.226    -188.113    -187.710
  C      131.764    -186.408    -186.426
  O      131.786    -187.515    -187.317
  C      130.933    -185.269    -187.001
  O      130.930    -184.162    -186.052
  C      131.446    -184.722    -188.343
  O      130.332    -184.509    -189.223
  C      132.015    -183.361    -187.981
  O      132.010    -182.468    -189.089
  C      131.076    -182.964    -186.839
  N      132.347    -178.076    -186.849
  C      131.667    -178.813    -187.799
  N      131.329    -178.166    -188.935
  N      131.348    -180.073    -187.653
  C      131.721    -180.582    -186.453
  C      132.392    -179.953    -185.428
  C      132.789    -178.576    -185.631
  O      133.470    -177.895    -184.866
  N      132.577    -180.793    -184.361
  C      132.025    -181.932    -184.736
  N      131.538    -181.867    -186.018
  O      132.878    -189.349    -188.665
  O      134.164    -187.165    -188.372
  H      131.075    -182.316    -189.326
  H      133.348    -189.251    -189.516
  H      132.582    -177.116    -187.022
  H      131.987    -182.832    -184.135
  H      130.086    -182.693    -187.233
  H      133.046    -183.484    -187.632
  H      131.512    -177.188    -189.097
  H      132.187    -185.363    -188.832
  H      130.812    -178.681    -189.634
  H      129.892    -185.606    -187.093
  H      132.788    -186.058    -186.262
  H      131.346    -186.733    -185.468
  P      130.450    -185.178    -190.680
  C      130.213    -187.519    -189.565
  O      130.950    -186.676    -190.430
  O      131.723    -184.450    -191.317
  O      129.224    -185.025    -191.516
  H      131.676    -184.471    -192.293
  H      129.257    -187.075    -189.272
  H      130.804    -187.706    -188.665
  H      130.022    -188.469    -190.070
  H      133.555    -190.306    -184.998
  H      133.004    -190.703    -186.608
  H      132.075    -189.609    -185.611

 3  4  5  6  7  8  9  10  11  12  23  26  30  31  33  0
 6-311+G(2d,p)
 ****
 35  36  37  38 0
 6-311+G(2d,p)
 ****
 1  2  13  14  15  16  17  18  19  20  21  22  24  25  27  28  29 0
 3-21G
 ****
 32  34  39  40  41  42  43  44  45  46  47  48  49 0
 3-21G
 ****


