%nproc=1
%NoSave
%Mem=1900MB
#P OB98/GEN NMR

erre ene a

0 1
  C       25.276      16.870    -590.251
  O       26.424      17.027    -591.054
  P       26.759      18.439    -591.735
  C       28.138      16.959    -593.331
  O       27.303      18.105    -593.211
  C       28.117      16.436    -594.765
  O       26.785      15.985    -595.131
  C       28.461      17.483    -595.812
  O       29.783      17.993    -595.815
  C       27.979      16.806    -597.081
  O       28.938      15.860    -597.562
  C       26.710      16.076    -596.580
  N       25.488      16.747    -597.017
  C       24.741      16.087    -597.993
  O       25.067      15.002    -598.475
  N       23.616      16.733    -598.419
  C       23.194      17.968    -598.018
  O       22.195      18.507    -598.483
  C       24.030      18.627    -596.999
  C       25.118      17.997    -596.551
  O       27.639      19.339    -590.937
  O       25.307      19.052    -592.041
  H       29.123      15.230    -596.841
  H       24.753      18.509    -592.631
  H       23.069      16.278    -599.134
  H       23.714      19.600    -596.648
  H       25.752      18.461    -595.803
  H       26.685      15.041    -596.958
  H       27.805      17.521    -597.889
  H       27.812      18.356    -595.654
  H       28.779      15.567    -594.823
  H       27.763      16.177    -592.659
  H       29.160      17.215    -593.014
  P       30.121      19.556    -595.857
  C       32.436      19.050    -596.904
  O       31.243      19.797    -596.976
  O       30.305      20.242    -594.540
  O       28.810      20.152    -596.572
  H       28.646      21.052    -596.239
  H       33.096      19.372    -597.712
  H       32.229      17.984    -597.030
  H       32.943      19.222    -595.946
  H       25.228      15.864    -589.890
  H       24.403      17.083    -590.832
  H       25.326      17.544    -589.422

 3  4  5  6  7  8  9  10  11  12  13  23  28  29  30  31  32 0
 6-311+G(2d,p)
 ****
 33  34 0
 6-311+G(2d,p)
 ****
 1  2  14  15  16  17  18  19  20  21  22  24  25  26  27 0
 3-21G
 ****
 35  36  37  38  39  40  41  42  43  44  45 0
 3-21G
 ****


