%nproc=1
%NoSave
%Mem=1900MB
#P OB98/GEN NMR

erre ene a

0 1
  C      314.377    -258.503    -104.780
  O      315.135    -259.014    -103.702
  H      313.371    -258.274    -104.421
  H      314.300    -259.249    -105.574
  H      314.825    -257.587    -105.172
  P      316.699    -259.289    -103.921
  C      317.340    -257.841    -101.885
  O      317.485    -258.047    -103.284
  C      318.578    -258.353    -101.152
  O      319.756    -257.655    -101.617
  C      318.538    -258.135     -99.645
  O      317.689    -259.077     -99.017
  C      320.010    -258.271     -99.297
  O      320.390    -259.652     -99.202
  C      320.684    -257.595    -100.511
  N      321.091    -256.216    -100.239
  C      322.184    -256.048     -99.395
  O      322.779    -256.985     -98.863
  N      322.561    -254.752     -99.157
  C      321.894    -253.637     -99.576
  O      322.221    -252.498     -99.258
  C      320.733    -253.875    -100.442
  C      320.390    -255.134    -100.730
  O      317.104    -259.647    -105.310
  O      317.019    -260.478    -102.895
  H      321.364    -259.665     -99.120
  H      317.115    -261.314    -103.387
  H      323.341    -254.610     -98.538
  H      320.188    -253.014    -100.806
  H      319.533    -255.327    -101.363
  H      321.573    -258.159    -100.816
  H      320.253    -257.807     -98.342
  H      318.213    -257.112     -99.422
  H      318.701    -259.419    -101.392
  H      316.457    -258.391    -101.537
  H      317.188    -256.772    -101.697
  P      316.752    -258.619     -97.802
  C      314.905    -257.721     -99.348
  O      315.838    -257.406     -98.321
  O      317.455    -258.372     -96.508
  O      315.703    -259.818     -97.657
  H      315.783    -260.213     -96.768
  H      314.355    -256.842     -99.612
  H      314.229    -258.473     -98.997
  H      315.429    -258.085    -100.207

 6  7  8  9  10  11  12  13  14  15  16  26  31  32  33  34  35 0
 6-311+G(2d,p)
 ****
 36  37 0
 6-311+G(2d,p)
 ****
 1  2  3  4  5  17  18  19  20  21  22  23  24  25 0
 3-21G
 ****
 27  28  29  30  38  39  40  41  42  43  44  45 0
 3-21G
 ****


