%nproc=1
%NoSave
%Mem=1900MB
#P OB98/GEN NMR

erre ene a

0 1
  C      528.905     603.587    1982.796
  O      530.252     603.248    1982.990
  H      528.848     604.590    1982.352
  H      528.371     603.620    1983.760
  H      528.417     602.877    1982.128
  P      530.607     601.848    1983.705
  C      532.337     601.220    1981.874
  O      531.129     600.867    1982.552
  C      532.489     600.399    1980.602
  O      532.675     599.010    1980.976
  C      531.253     600.489    1979.671
  O      531.600     600.889    1978.331
  C      530.573     599.163    1979.893
  O      529.758     598.740    1978.802
  C      531.730     598.204    1980.242
  N      531.320     597.052    1981.029
  C      531.130     595.848    1980.344
  O      531.279     595.688    1979.129
  N      530.758     594.781    1981.115
  C      530.527     594.794    1982.482
  O      530.190     593.818    1983.107
  C      530.716     596.112    1983.125
  C      531.098     597.160    1982.385
  O      529.531     601.280    1984.564
  O      531.944     602.160    1984.538
  H      530.329     598.763    1978.002
  H      531.714     602.229    1985.483
  H      530.638     593.912    1980.642
  H      530.560     596.168    1984.190
  H      531.259     598.138    1982.857
  H      532.218     597.859    1979.338
  H      529.901     599.251    1980.769
  H      530.598     601.295    1980.004
  H      533.410     600.742    1980.085
  H      533.163     601.025    1982.569
  H      532.307     602.285    1981.629
  P      531.691     602.396    1977.822
  C      534.118     602.166    1976.812
  O      533.245     602.789    1977.734
  O      530.773     603.381    1978.472
  O      531.262     602.279    1976.267
  H      530.829     603.127    1976.039
  H      535.101     602.574    1976.921
  H      533.768     602.340    1975.816
  H      534.145     601.113    1977.002

 6  7  8  9  10  11  12  13  14  15  16  26  31  32  33  34  35 0
 6-311+G(2d,p)
 ****
 36  37 0
 6-311+G(2d,p)
 ****
 1  2  3  4  5  17  18  19  20  21  22  23  24  25 0
 3-21G
 ****
 27  28  29  30  38  39  40  41  42  43  44  45 0
 3-21G
 ****


