%nproc=1
%NoSave
%Mem=1900MB
#P OB98/GEN NMR

erre ene a

0 1
  C      -22.553     -51.459      80.011
  O      -23.535     -52.417      79.677
  H      -21.662     -51.981      80.365
  H      -22.922     -50.815      80.812
  H      -22.280     -50.853      79.143
  P      -24.831     -51.946      78.861
  C      -24.045     -53.286      76.804
  O      -24.440     -52.018      77.306
  C      -23.392     -53.147      75.425
  O      -22.066     -52.568      75.590
  C      -23.221     -54.478      74.678
  O      -23.314     -54.197      73.276
  C      -21.802     -54.858      75.047
  O      -21.283     -55.834      74.172
  C      -21.121     -53.488      75.012
  N      -19.842     -53.481      75.720
  C      -18.752     -54.004      75.038
  O      -18.832     -54.487      73.908
  N      -17.562     -54.001      75.710
  C      -17.376     -53.589      76.998
  O      -16.292     -53.638      77.564
  C      -18.575     -53.086      77.687
  C      -19.734     -53.051      77.026
  O      -25.433     -50.651      79.293
  O      -25.859     -53.163      79.017
  H      -20.454     -56.211      74.537
  H      -26.777     -52.831      78.995
  H      -16.759     -54.368      75.225
  H      -18.463     -52.760      78.712
  H      -20.635     -52.685      77.507
  H      -20.935     -53.173      73.977
  H      -21.765     -55.276      76.058
  H      -23.957     -55.231      74.968
  H      -23.977     -52.434      74.831
  H      -24.940     -53.912      76.728
  H      -23.343     -53.753      77.501
  P      -24.706     -54.271      72.481
  C      -24.802     -51.793      71.788
  O      -25.413     -52.833      72.546
  O      -25.587     -55.405      72.892
  O      -24.287     -54.410      70.941
  H      -24.984     -54.886      70.453
  H      -25.360     -50.888      71.910
  H      -24.788     -52.067      70.754
  H      -23.800     -51.643      72.131

 6  7  8  9  10  11  12  13  14  15  16  26  31  32  33  34  35 0
 6-311+G(2d,p)
 ****
 36  37 0
 6-311+G(2d,p)
 ****
 1  2  3  4  5  17  18  19  20  21  22  23  24  25 0
 3-21G
 ****
 27  28  29  30  38  39  40  41  42  43  44  45 0
 3-21G
 ****


