%nproc=1
%NoSave
%Mem=1900MB
#P OB98/GEN NMR

erre ene a

0 1
  C       11.232     377.737     304.838
  O       10.417     376.690     305.315
  H       12.228     377.631     305.274
  H       10.812     378.697     305.149
  H       11.320     377.710     303.749
  P        9.081     376.327     304.514
  C        7.589     377.649     306.156
  O        7.996     377.478     304.803
  C        7.439     379.126     306.520
  O        8.671     379.823     306.225
  C        6.337     379.820     305.719
  O        5.042     379.717     306.287
  C        6.814     381.271     305.711
  O        6.341     381.982     306.865
  C        8.343     381.136     305.753
  N       11.463     384.047     302.933
  C       10.966     384.285     304.200
  N       11.318     385.461     304.764
  N       10.186     383.451     304.836
  C        9.840     382.365     304.107
  C       10.255     382.032     302.837
  C       11.175     382.925     302.168
  O       11.655     382.753     301.053
  N        9.660     380.871     302.402
  C        8.828     380.551     303.374
  N        8.961     381.384     304.464
  O        8.484     375.079     305.328
  O        9.269     375.976     303.069
  H        6.821     381.638     307.647
  H        8.004     374.491     304.717
  H       12.080     384.710     302.508
  H        8.146     379.713     303.362
  H        8.786     381.852     306.458
  H        6.437     381.800     304.834
  H       11.844     386.175     304.285
  H        6.324     379.460     304.685
  H       10.825     385.758     305.607
  H        7.268     379.217     307.600
  H        8.359     377.186     306.772
  H        6.653     377.111     306.341
  P        3.905     378.844     305.581
  C        2.160     380.804     305.692
  O        2.841     379.836     304.923
  O        3.107     378.219     306.821
  O        4.394     377.790     304.640
  H        3.398     377.305     306.991
  H        1.498     381.359     305.061
  H        2.870     381.469     306.138
  H        1.596     380.317     306.460

 6  7  8  9  10  11  12  13  14  15  26  29  33  34 0
 6-311+G(2d,p)
 ****
 36  38  39  40  41 0
 6-311+G(2d,p)
 ****
 1  2  3  4  5  16  17  18  19  20  21  22  23  24  25 0
 3-21G
 ****
 27  28  30  31  32  35  37  42  43  44  45  46  47 0
 3-21G
 ****
 48  49 0
 3-21G
 ****


