%nproc=1
%NoSave
%Mem=1900MB
#P OB98/GEN NMR

erre ene a

0 1
  C      295.638    -899.399      54.165
  O      296.174    -898.109      54.523
  P      297.603    -897.919      55.231
  C      298.989    -897.119      53.181
  O      298.403    -896.769      54.450
  C      299.365    -895.879      52.394
  O      298.177    -895.159      51.970
  C      300.171    -894.829      53.167
  O      301.518    -895.229      53.380
  C      300.015    -893.609      52.262
  O      300.970    -893.609      51.203
  C      298.593    -893.789      51.679
  N      297.633    -892.849      52.210
  C      297.685    -891.539      51.682
  O      298.554    -891.239      50.878
  N      296.755    -890.619      52.090
  C      295.915    -890.939      53.041
  N      294.998    -889.999      53.409
  C      295.920    -892.249      53.728
  C      296.779    -893.149      53.265
  O      298.377    -899.179      55.397
  O      297.277    -897.249      56.659
  H      297.994    -897.479      57.290
  H      301.851    -893.669      51.598
  H      295.218    -892.459      54.527
  H      296.840    -894.149      53.682
  H      298.610    -893.719      50.585
  H      300.145    -892.659      52.816
  H      299.683    -894.629      54.118
  H      299.915    -896.179      51.501
  H      295.018    -889.119      52.911
  H      298.249    -897.709      52.617
  H      294.289    -890.159      54.110
  H      299.856    -897.759      53.367
  P      302.167    -894.839      54.788
  C      302.684    -897.219      55.753
  O      303.195    -896.039      55.177
  O      300.982    -895.029      55.830
  O      302.747    -893.469      54.856
  H      300.999    -894.329      56.489
  H      303.357    -898.039      55.515
  H      301.688    -897.449      55.371
  H      302.632    -897.099      56.839
  H      294.678    -899.272      53.709
  H      295.538    -900.000      55.044
  H      296.300    -899.881      53.476

 3  4  5  6  7  8  9  10  11  12  13  24  27  28  29  30  32 0
 6-311+G(2d,p)
 ****
 34  35 0
 6-311+G(2d,p)
 ****
 1  2  14  15  16  17  18  19  20  21  22  23  25  26 0
 3-21G
 ****
 31  33  36  37  38  39  40  41  42  43  44  45  46 0
 3-21G
 ****


