%nproc=1
%NoSave
%Mem=1900MB
#P OB98/GEN NMR

erre ene a

0 1
  C     -190.141    -100.069     149.683
  O     -190.209    -101.449     149.985
  H     -191.066     -99.590     150.013
  H     -190.038     -99.929     148.604
  H     -189.297     -99.602     150.202
  P     -188.869    -102.309     149.803
  C     -186.492    -102.125     150.840
  O     -187.879    -101.868     150.990
  C     -185.890    -102.540     152.182
  O     -186.119    -101.469     153.143
  C     -186.494    -103.821     152.768
  O     -185.457    -104.545     153.438
  C     -187.479    -103.298     153.798
  O     -187.789    -104.231     154.825
  C     -186.733    -102.061     154.308
  N     -187.616    -101.111     154.979
  C     -187.685    -101.172     156.367
  O     -186.997    -101.907     157.072
  N     -188.601    -100.334     156.951
  C     -189.445     -99.483     156.297
  O     -190.261     -98.772     156.876
  C     -189.332     -99.469     154.831
  C     -188.438    -100.272     154.251
  O     -188.198    -101.660     148.502
  O     -189.066    -103.782     149.672
  H     -188.511    -102.111     147.696
  H     -186.941    -104.555     155.192
  H     -188.667    -100.364     157.956
  H     -189.994     -98.814     154.280
  H     -188.344    -100.302     153.167
  H     -185.923    -102.358     154.989
  H     -188.416    -103.013     153.305
  H     -186.976    -104.469     152.029
  H     -184.803    -102.638     152.066
  H     -185.990    -101.219     150.490
  H     -186.350    -102.917     150.095
  P     -185.004    -105.949     152.800
  C     -183.861    -106.305     150.468
  O     -183.909    -105.580     151.690
  O     -186.307    -106.341     151.963
  O     -184.582    -106.947     153.826
  H     -186.756    -105.570     151.576
  H     -183.072    -105.921     149.856
  H     -184.794    -106.201     149.954
  H     -183.681    -107.339     150.674

 6  7  8  9  10  11  12  13  14  15  16  27  31  32  33  34  35 0
 6-311+G(2d,p)
 ****
 36  37 0
 6-311+G(2d,p)
 ****
 1  2  3  4  5  17  18  19  20  21  22  23  24  25 0
 3-21G
 ****
 26  28  29  30  38  39  40  41  42  43  44  45 0
 3-21G
 ****


