%nproc=1
%NoSave
%Mem=1900MB
#P OB98/GEN NMR

erre ene a

0 1
  C     -103.466      30.034     171.520
  O     -103.871      28.847     172.206
  P     -102.695      27.957     172.837
  C     -101.720      27.206     170.554
  O     -102.316      26.812     171.780
  C     -101.049      26.012     169.870
  O      -99.959      25.475     170.644
  C     -101.998      24.847     169.625
  O     -102.791      25.097     168.477
  C     -101.027      23.687     169.439
  O     -100.537      23.626     168.085
  C      -99.886      24.047     170.407
  N      -97.434      20.733     173.353
  C      -97.183      21.113     172.049
  N      -96.113      20.545     171.453
  N      -97.916      21.969     171.390
  C      -98.953      22.457     172.111
  C      -99.285      22.179     173.418
  C      -98.471      21.225     174.135
  O      -98.637      20.874     175.298
  N     -100.371      22.915     173.826
  C     -100.763      23.536     172.728
  N      -99.901      23.344     171.678
  O     -103.426      27.170     174.023
  O     -101.545      28.765     173.345
  H     -100.226      24.512     167.820
  H     -103.117      27.504     174.885
  H      -96.842      20.060     173.811
  H     -101.646      24.158     172.651
  H      -98.904      23.847     169.959
  H     -101.501      22.724     169.640
  H      -95.505      19.878     171.904
  H     -102.623      24.675     170.511
  H      -95.906      20.814     170.500
  H     -100.643      26.365     168.913
  H     -100.982      27.990     170.731
  H     -102.491      27.639     169.911
  P     -104.221      25.786     168.689
  C     -105.286      23.464     169.139
  O     -105.338      24.674     168.411
  O     -104.337      26.775     167.435
  O     -104.366      26.533     169.976
  H     -104.683      27.639     167.730
  H     -106.301      23.076     169.251
  H     -104.849      23.606     170.132
  H     -104.687      22.735     168.583
  H     -104.330      30.542     171.145
  H     -102.824      29.773     170.705
  H     -102.941      30.676     172.197

 3  4  5  6  7  8  9  10  11  12  23  26  30  31 0
 6-311+G(2d,p)
 ****
 33  35  36  37  38 0
 6-311+G(2d,p)
 ****
 1  2  13  14  15  16  17  18  19  20  21  22  24  25 0
 3-21G
 ****
 27  28  29  32  34  39  40  41  42  43  44  45  46  47  48  49 0
 3-21G
 ****


