%nproc=1
%NoSave
%Mem=1900MB
#P OB98/GEN NMR

erre ene a

0 1
  C     -177.294      28.668    -140.165
  O     -178.475      29.304    -139.716
  H     -177.136      28.926    -141.215
  H     -177.387      27.582    -140.084
  H     -176.433      29.012    -139.586
  P     -178.975      29.019    -138.222
  C     -181.133      27.854    -139.045
  O     -179.925      27.731    -138.302
  C     -182.331      27.432    -138.197
  O     -183.560      27.680    -138.907
  C     -182.349      25.950    -137.840
  O     -181.406      25.669    -136.826
  C     -183.806      25.778    -137.443
  O     -184.042      26.274    -136.117
  C     -184.512      26.671    -138.493
  N     -185.015      25.930    -139.645
  C     -186.373      25.593    -139.614
  O     -187.069      25.906    -138.650
  N     -186.896      24.892    -140.674
  C     -186.149      24.595    -141.689
  N     -186.730      23.906    -142.707
  C     -184.723      24.962    -141.776
  C     -184.224      25.611    -140.726
  O     -179.570      30.182    -137.491
  O     -177.671      28.460    -137.479
  H     -185.011      26.268    -135.993
  H     -177.200      29.184    -137.026
  H     -184.139      24.702    -142.647
  H     -183.183      25.917    -140.709
  H     -185.357      27.203    -138.037
  H     -184.118      24.733    -137.455
  H     -182.160      25.342    -138.731
  H     -182.340      28.054    -137.293
  H     -187.718      23.694    -142.611
  H     -181.041      27.199    -139.919
  H     -186.295      23.765    -143.607
  H     -181.266      28.882    -139.399
  P     -180.466      24.372    -136.889
  C     -181.473      23.393    -134.737
  O     -181.273      23.211    -136.130
  O     -179.067      24.579    -136.416
  O     -180.560      23.914    -138.419
  H     -179.996      24.494    -138.988
  H     -182.019      22.561    -134.343
  H     -182.026      24.294    -134.571
  H     -180.525      23.462    -134.246

 6  7  8  9  10  11  12  13  14  15  16  26  30  31  32  33  35 0
 6-311+G(2d,p)
 ****
 37  38 0
 6-311+G(2d,p)
 ****
 1  2  3  4  5  17  18  19  20  21  22  23  24  25 0
 3-21G
 ****
 27  28  29  34  36  39  40  41  42  43  44  45  46 0
 3-21G
 ****


