%nproc=1
%NoSave
%Mem=1900MB
#P OB98/GEN NMR

erre ene a

0 1
  C      417.482      61.341     671.025
  O      416.266      61.887     670.562
  H      418.280      61.601     670.324
  H      417.406      60.252     671.086
  H      417.737      61.754     672.009
  P      414.972      61.640     671.473
  C      414.323      59.279     670.597
  O      414.008      60.667     670.636
  C      413.116      58.494     670.092
  O      412.004      58.667     671.006
  C      412.602      58.951     668.737
  O      413.389      58.461     667.662
  C      411.187      58.401     668.751
  O      411.156      57.022     668.360
  C      410.789      58.544     670.226
  N      406.111      60.457     669.467
  C      406.649      59.240     669.198
  N      407.901      58.807     669.441
  C      408.623      59.768     670.057
  C      408.214      61.045     670.394
  C      406.889      61.384     670.069
  N      406.354      62.630     670.314
  N      409.258      61.752     670.971
  C      410.266      60.906     670.985
  N      409.935      59.698     670.448
  O      414.218      63.052     671.428
  O      415.255      61.208     672.872
  H      411.732      56.546     668.996
  H      414.407      63.552     672.242
  H      405.982      58.531     668.720
  H      411.258      61.127     671.370
  H      410.248      57.663     670.604
  H      410.543      58.955     668.065
  H      412.555      60.048     668.701
  H      413.376      57.421     670.068
  H      414.582      58.940     671.603
  H      415.184      59.129     669.942
  H      405.421      62.824     670.006
  H      406.958      63.361     670.666
  P      414.322      59.503     666.876
  C      412.308      60.836     665.869
  O      413.472      60.051     665.636
  O      415.444      58.591     666.203
  O      414.910      60.579     667.731
  H      416.300      59.062     666.193
  H      411.871      61.112     664.932
  H      412.576      61.718     666.412
  H      411.602      60.267     666.438

 6  7  8  9  10  11  12  13  14  15  25  28  32  33  34  35 0
 6-311+G(2d,p)
 ****
 36  37  40 0
 6-311+G(2d,p)
 ****
 1  2  3  4  5  16  17  18  19  20  21  22  23  24 0
 3-21G
 ****
 26  27  29  30  31  38  39 41  42  43  44  45  46  47  48 0
 3-21G
 ****


