%nproc=1
%NoSave
%Mem=1900MB
#P OB98/GEN NMR

erre ene a

0 1
  C     -116.436    -263.593      62.444
  O     -117.305    -262.644      61.864
  H     -115.453    -263.135      62.568
  H     -116.335    -264.466      61.795
  H     -116.807    -263.899      63.426
  P     -118.806    -263.083      61.514
  C     -118.115    -263.705      59.106
  O     -118.978    -262.925      59.927
  C     -118.328    -263.352      57.628
  O     -119.691    -263.702      57.283
  C     -118.126    -261.857      57.347
  O     -117.207    -261.610      56.287
  C     -119.552    -261.337      57.196
  O     -119.667    -260.178      56.396
  C     -120.314    -262.557      56.672
  N     -121.746    -262.530      56.968
  C     -122.621    -262.485      55.887
  O     -122.285    -262.482      54.706
  N     -123.955    -262.453      56.207
  C     -124.480    -262.444      57.464
  O     -125.685    -262.417      57.687
  C     -123.504    -262.463      58.564
  C     -122.204    -262.502      58.270
  O     -119.874    -262.430      62.326
  O     -118.803    -264.672      61.717
  H     -119.204    -260.363      55.551
  H     -119.265    -264.895      62.547
  H     -124.600    -262.437      55.432
  H     -123.888    -262.443      59.575
  H     -121.456    -262.519      59.059
  H     -120.203    -262.645      55.591
  H     -119.932    -261.079      58.191
  H     -117.658    -261.359      58.204
  H     -117.663    -263.973      57.019
  H     -118.349    -264.760      59.282
  H     -117.074    -263.518      59.385
  P     -115.781    -260.919      56.452
  C     -116.337    -258.612      55.316
  O     -115.604    -259.829      55.295
  O     -114.632    -261.841      56.688
  O     -115.949    -260.007      57.772
  H     -115.071    -259.985      58.204
  H     -116.077    -258.024      54.460
  H     -116.101    -258.069      56.207
  H     -117.385    -258.827      55.296

 6  7  8  9  10  11  12  13  14  15  16  26  31  32  33  34  35 0
 6-311+G(2d,p)
 ****
 36  37 0
 6-311+G(2d,p)
 ****
 1  2  3  4  5  17  18  19  20  21  22  23  24  25 0
 3-21G
 ****
 27  28  29  30  38  39  40  41  42  43  44  45 0
 3-21G
 ****


