%nproc=1
%NoSave
%Mem=1900MB
#P OB98/GEN NMR

erre ene a

0 1
  C      167.994    -607.770    -421.669
  O      168.259    -608.715    -420.639
  P      169.377    -609.835    -420.926
  C      171.042    -609.482    -418.967
  O      170.744    -609.244    -420.337
  C      172.156    -608.556    -418.486
  O      171.705    -607.185    -418.499
  C      172.628    -608.815    -417.062
  O      173.562    -609.886    -416.995
  C      173.312    -607.499    -416.739
  O      174.623    -607.462    -417.337
  C      172.391    -606.481    -417.432
  N      171.326    -602.470    -414.446
  C      172.426    -602.795    -415.156
  N      172.636    -603.883    -415.920
  C      171.572    -604.712    -415.872
  C      170.401    -604.532    -415.156
  C      170.284    -603.341    -414.418
  N      169.156    -602.999    -413.713
  N      169.544    -605.598    -415.351
  C      170.187    -606.399    -416.173
  N      171.414    -605.903    -416.528
  O      169.590    -609.734    -422.514
  O      169.016    -611.212    -420.497
  H      174.984    -606.574    -417.173
  H      169.948    -610.575    -422.857
  H      173.234    -602.076    -415.123
  H      169.799    -607.335    -416.553
  H      172.947    -605.656    -417.888
  H      173.449    -607.340    -415.666
  H      171.781    -608.967    -416.383
  H      172.992    -608.643    -419.194
  H      171.363    -610.519    -418.844
  H      169.079    -602.056    -413.371
  H      168.315    -603.550    -413.869
  H      170.128    -609.326    -418.371
  P      173.140    -611.158    -416.116
  C      174.050    -612.758    -417.951
  O      172.943    -612.357    -417.166
  O      171.649    -610.803    -415.653
  O      174.047    -611.435    -414.966
  H      171.435    -611.267    -414.817
  H      173.836    -613.750    -418.368
  H      174.955    -612.820    -417.355
  H      174.197    -612.058    -418.777
  H      167.235    -607.090    -421.343
  H      167.660    -608.283    -422.547
  H      168.888    -607.226    -421.892

 3  4  5  6  7  8  9  10  11  12  22  25  29  30  31  32 0
 6-311+G(2d,p)
 ****
 33  36  37 0
 6-311+G(2d,p)
 ****
 1  2  13  14  15  16  17  18  19  20  21  23  24  26 0
 3-21G
 ****
 27  28  34  35  38  39  40  41  42  43  44  45  46  47  48 0
 3-21G
 ****


