%nproc=1
%NoSave
%Mem=1900MB
#P OB98/GEN NMR

erre ene a

0 1
  C     1386.466      77.154     172.264
  O     1385.775      77.918     173.246
  P     1386.012      77.539     174.787
  C     1383.567      78.068     175.507
  O     1384.955      78.406     175.618
  C     1382.803      78.520     176.743
  O     1383.275      77.820     177.913
  C     1382.958      80.010     177.073
  O     1382.090      80.814     176.279
  C     1382.528      80.028     178.528
  O     1381.094      79.995     178.625
  C     1383.135      78.705     179.049
  N     1385.490      79.822     183.449
  C     1384.191      79.798     183.106
  N     1383.627      79.507     181.916
  C     1384.596      79.240     181.009
  C     1385.972      79.251     181.190
  C     1386.419      79.548     182.495
  N     1387.753      79.543     182.848
  N     1386.622      78.944     180.031
  C     1385.671      78.722     179.142
  N     1384.422      78.877     179.692
  O     1387.422      78.241     175.117
  O     1386.037      76.069     175.079
  H     1380.761      80.659     177.993
  H     1387.844      77.797     175.876
  H     1383.486      80.048     183.905
  H     1385.833      78.442     178.110
  H     1382.478      78.213     179.768
  H     1382.867      80.922     179.057
  H     1384.006      80.317     176.982
  H     1381.749      78.269     176.599
  H     1383.476      76.976     175.417
  H     1387.982      79.578     183.826
  H     1388.418      79.155     182.187
  H     1383.172      78.538     174.599
  P     1382.783      81.690     175.117
  C     1381.346      83.622     176.127
  O     1381.853      82.984     174.957
  O     1382.464      80.824     173.810
  O     1384.234      81.931     175.325
  H     1383.145      81.020     173.124
  H     1381.016      84.620     175.862
  H     1382.133      83.704     176.898
  H     1380.507      83.052     176.529
  H     1386.214      77.515     171.289
  H     1386.182      76.126     172.348
  H     1387.521      77.247     172.417

 3  4  5  6  7  8  9  10  11  12  22  25  29  30  31  32 0
 6-311+G(2d,p)
 ****
 33  36  37 0
 6-311+G(2d,p)
 ****
 1  2  13  14  15  16  17  18  19  20  21  23  24  26 0
 3-21G
 ****
 27  28  34  35  38  39  40  41  42  43  44  45  46  47  48 0
 3-21G
 ****


