%nproc=1
%NoSave
%Mem=1900MB
#P OB98/GEN NMR

erre ene a

0 1
  C      172.560      41.551     141.838
  O      171.230      41.541     141.353
  P      170.985      41.799     139.791
  C      169.310      39.846     139.412
  O      169.521      41.249     139.432
  C      167.815      39.533     139.307
  O      167.183      39.760     140.603
  C      167.068      40.393     138.277
  O      166.029      39.581     137.710
  C      166.452      41.477     139.141
  O      165.363      42.138     138.516
  C      166.076      40.655     140.378
  N      165.805      41.484     141.551
  C      165.200      40.869     142.642
  O      164.880      39.682     142.673
  N      164.905      41.688     143.699
  C      165.069      43.042     143.737
  O      164.677      43.734     144.669
  C      165.714      43.636     142.557
  C      166.048      42.844     141.535
  O      171.968      40.751     139.087
  O      171.244      43.198     139.343
  H      165.690      42.513     137.678
  H      172.782      41.197     138.789
  H      164.475      41.257     144.504
  H      165.879      44.705     142.563
  H      166.506      43.260     140.643
  H      165.198      40.031     140.164
  H      167.213      42.230     139.377
  H      167.712      40.792     137.489
  H      167.698      38.468     139.072
  H      169.704      39.411     140.331
  H      169.857      39.405     138.571
  P      165.882      39.558     136.111
  C      164.232      37.553     136.410
  O      164.518      38.786     135.785
  O      167.024      38.504     135.721
  O      166.060      40.898     135.473
  H      167.034      37.730     136.307
  H      164.624      37.518     137.429
  H      164.674      36.741     135.826
  H      163.149      37.415     136.442
  H      172.557      41.365     142.892
  H      173.003      42.506     141.646
  H      173.126      40.790     141.343

 3  4  5  6  7  8  9  10  11  12  13  23  28  29  30  31  32 0
 6-311+G(2d,p)
 ****
 33  34 0
 6-311+G(2d,p)
 ****
 1  2  14  15  16  17  18  19  20  21  22  24  25  26 0
 3-21G
 ****
 27  35  36  37  38  39  40  41  42  43  44  45 0
 3-21G
 ****


