%nproc=1
%NoSave
%Mem=1900MB
#P OB98/GEN NMR

erre ene a

0 1
  C       39.025      11.190     260.118
  O       38.465      12.485     260.035
  H       39.306      10.865     259.113
  H       38.290      10.490     260.523
  H       39.918      11.200     260.748
  P       38.154      13.226     261.427
  C       35.768      12.233     261.887
  O       37.146      12.255     262.214
  C       34.932      12.766     263.053
  O       35.171      11.933     264.217
  C       35.258      14.210     263.440
  O       34.047      14.864     263.818
  C       36.166      14.060     264.646
  O       36.153      15.226     265.472
  C       35.611      12.782     265.296
  N       36.600      12.110     266.137
  C       36.201      11.784     267.438
  O       35.075      12.083     267.837
  N       37.099      11.169     268.272
  C       38.317      10.963     267.866
  N       39.167      10.368     268.749
  C       38.797      11.336     266.520
  C       37.893      11.890     265.716
  O       37.223      14.438     260.949
  O       39.370      13.639     262.186
  H       36.682      15.029     266.277
  H       36.574      14.187     260.271
  H       39.825      11.156     266.236
  H       38.158      12.189     264.704
  H       34.735      13.016     265.913
  H       37.200      13.896     264.315
  H       35.742      14.773     262.641
  H       33.871      12.653     262.799
  H       38.805      10.142     269.668
  H       35.451      11.212     261.648
  H       40.146      10.205     268.559
  H       35.618      12.856     260.998
  P       33.366      15.902     262.805
  C       34.328      17.842     264.207
  O       34.134      17.308     262.907
  O       31.877      15.994     262.874
  O       33.837      15.359     261.369
  H       33.084      15.466     260.749
  H       34.848      18.774     264.136
  H       34.904      17.156     264.792
  H       33.378      17.998     264.674

 6  7  8  9  10  11  12  13  14  15  16  26  30  31  32  33  35 0
 6-311+G(2d,p)
 ****
 37  38 0
 6-311+G(2d,p)
 ****
 1  2  3  4  5  17  18  19  20  21  22  23  24  25 0
 3-21G
 ****
 27  28  29  34  36  39  40  41  42  43  44  45  46 0
 3-21G
 ****


