%nproc=1
%NoSave
%Mem=1900MB
#P OB98/GEN NMR

erre ene a

0 1
  C     -425.805    -379.199     -39.197
  O     -426.262    -379.352     -40.527
  H     -426.095    -378.207     -38.840
  H     -424.716    -379.278     -39.166
  H     -426.252    -379.951     -38.538
  P     -426.212    -380.805     -41.199
  C     -424.377    -380.252     -42.928
  O     -424.722    -380.997     -41.768
  C     -423.557    -381.110     -43.898
  O     -424.313    -382.325     -44.192
  C     -423.254    -380.423     -45.244
  O     -421.984    -380.907     -45.699
  C     -424.381    -380.959     -46.108
  O     -424.152    -380.728     -47.473
  C     -424.406    -382.412     -45.631
  N     -425.598    -383.142     -46.041
  C     -425.602    -383.691     -47.321
  O     -424.656    -383.621     -48.102
  N     -426.755    -384.338     -47.685
  C     -427.875    -384.471     -46.920
  O     -428.874    -385.081     -47.291
  C     -427.823    -383.842     -45.592
  C     -426.705    -383.215     -45.219
  O     -427.303    -381.107     -42.172
  O     -426.246    -381.804     -39.947
  H     -427.157    -382.121     -39.809
  H     -424.979    -380.857     -47.986
  H     -426.774    -384.746     -48.610
  H     -428.705    -383.912     -44.968
  H     -426.629    -382.739     -44.246
  H     -423.519    -382.951     -45.978
  H     -425.320    -380.452     -45.858
  H     -423.224    -379.330     -45.166
  H     -422.634    -381.427     -43.397
  H     -423.786    -379.385     -42.614
  H     -425.289    -379.904     -43.419
  P     -420.641    -380.029     -45.656
  C     -420.562    -379.511     -48.183
  O     -420.649    -378.978     -46.868
  O     -419.391    -380.848     -45.597
  O     -420.769    -379.109     -44.349
  H     -419.887    -378.999     -43.945
  H     -420.577    -378.711     -48.894
  H     -421.393    -380.161     -48.360
  H     -419.650    -380.062     -48.285

 6  7  8  9  10  11  12  13  14  15  16  27  31  32  33  34  35 0
 6-311+G(2d,p)
 ****
 36  37 0
 6-311+G(2d,p)
 ****
 1  2  3  4  5  17  18  19  20  21  22  23  24  25 0
 3-21G
 ****
 26  28  29  30  38  39  40  41  42  43  44  45 0
 3-21G
 ****


