%nproc=1
%NoSave
%Mem=1900MB
#P OB98/GEN NMR

erre ene a

0 1
  C      181.970     185.415     721.023
  O      181.518     186.262     719.980
  P      180.903     185.543     718.664
  C      182.997     184.284     717.753
  O      182.119     185.375     717.634
  C      184.132     184.407     716.751
  O      183.590     184.511     715.401
  C      185.018     185.663     716.938
  O      185.979     185.423     717.940
  C      185.603     185.827     715.545
  O      186.722     184.940     715.342
  C      184.421     185.445     714.649
  N      183.808     188.953     711.052
  C      184.846     188.073     711.255
  N      185.858     188.087     710.339
  N      184.903     187.235     712.261
  C      183.857     187.327     713.102
  C      182.755     188.195     713.008
  C      182.692     189.060     711.869
  O      181.745     189.792     711.587
  N      181.889     188.009     714.055
  C      182.434     187.028     714.767
  N      183.614     186.563     714.216
  O      179.985     186.685     718.020
  O      180.141     184.282     718.949
  H      186.483     184.037     715.630
  H      179.047     186.556     718.269
  H      183.820     189.554     710.252
  H      182.003     186.615     715.663
  H      184.742     184.922     713.743
  H      185.982     186.850     715.377
  H      185.892     188.725     709.571
  H      184.405     186.529     717.198
  H      186.620     187.446     710.478
  H      184.764     183.507     716.792
  H      182.460     183.357     717.587
  H      183.417     184.248     718.793
  P      186.292     186.614     718.987
  C      187.620     187.955     717.211
  O      187.629     187.340     718.481
  O      186.745     185.837     720.297
  O      185.127     187.511     719.249
  H      186.430     186.317     721.106
  H      188.328     188.808     717.229
  H      186.628     188.344     716.929
  H      187.966     187.242     716.451
  H      182.350     186.011     721.827
  H      182.746     184.778     720.654
  H      181.155     184.817     721.376

 3  4  5  6  7  8  9  10  11  12  23  26  30  31 0
 6-311+G(2d,p)
 ****
 33  35  36  37  38 0
 6-311+G(2d,p)
 ****
 1  2  13  14  15  16  17  18  19  20  21  22  24  25 0
 3-21G
 ****
 27  28  29  32  34  39  40  41  42  43  44  45  46  47  48  49 0
 3-21G
 ****


