%nproc=1
%NoSave
%Mem=1900MB
#P OB98/GEN NMR

erre ene a

0 1
  C       19.662    -183.601     -20.128
  O       18.568    -183.522     -21.022
  H       19.731    -184.626     -19.750
  H       19.525    -182.924     -19.282
  H       20.591    -183.359     -20.652
  P       18.084    -182.066     -21.497
  C       16.744    -180.145     -20.412
  O       17.357    -181.418     -20.215
  C       16.049    -179.664     -19.138
  O       16.989    -179.570     -18.046
  C       15.441    -178.272     -19.248
  O       14.353    -178.171     -20.135
  C       15.246    -177.899     -17.785
  O       14.046    -178.445     -17.239
  C       16.479    -178.573     -17.132
  N       17.509    -177.605     -16.760
  C       17.561    -177.257     -15.415
  O       16.785    -177.700     -14.566
  N       18.523    -176.344     -15.072
  C       19.383    -175.726     -15.933
  O       20.211    -174.899     -15.564
  C       19.256    -176.106     -17.349
  C       18.338    -177.017     -17.694
  O       17.253    -182.035     -22.745
  O       19.442    -181.227     -21.607
  H       14.048    -179.399     -17.447
  H       19.307    -180.394     -22.121
  H       18.586    -176.089     -14.098
  H       19.914    -175.627     -18.062
  H       18.226    -177.314     -18.734
  H       16.179    -179.112     -16.221
  H       15.208    -176.817     -17.637
  H       16.211    -177.594     -19.639
  H       15.292    -180.408     -18.862
  H       16.000    -180.253     -21.209
  H       17.502    -179.420     -20.727
  P       13.628    -176.797     -20.500
  C       11.638    -175.393     -19.541
  O       12.550    -176.470     -19.358
  O       13.220    -176.611     -21.926
  O       14.792    -175.721     -20.179
  H       14.693    -174.991     -20.824
  H       10.997    -175.320     -18.688
  H       11.048    -175.570     -20.416
  H       12.183    -174.480     -19.657

 6  7  8  9  10  11  12  13  14  15  16  26  31  32  33  34  35 0
 6-311+G(2d,p)
 ****
 36  37 0
 6-311+G(2d,p)
 ****
 1  2  3  4  5  17  18  19  20  21  22  23  24  25 0
 3-21G
 ****
 27  28  29  30  38  39  40  41  42  43  44  45 0
 3-21G
 ****


