%nproc=1
%NoSave
%Mem=1900MB
#P OB98/GEN NMR

erre ene a

0 1
  C      -20.712      -6.359    -100.034
  O      -19.665      -6.780     -99.159
  P      -18.588      -5.701     -98.659
  C      -16.233      -4.949     -99.358
  O      -17.182      -6.006     -99.372
  C      -15.023      -5.236    -100.258
  O      -14.243      -6.346     -99.739
  C      -15.385      -5.574    -101.712
  O      -14.357      -5.017    -102.539
  C      -15.317      -7.089    -101.717
  O      -15.203      -7.623    -103.027
  C      -14.113      -7.314    -100.799
  N      -14.049      -8.672    -100.283
  C      -13.392      -9.623    -101.066
  O      -12.986      -9.322    -102.188
  N      -13.241     -10.894    -100.566
  C      -13.829     -11.218     -99.457
  N      -13.640     -12.480     -98.985
  C      -14.683     -10.287     -98.695
  C      -14.726      -9.039     -99.147
  O      -18.515      -5.506     -97.181
  O      -19.067      -4.356     -99.391
  H      -14.456      -7.186    -103.486
  H      -18.887      -3.596     -98.803
  H      -15.218     -10.627     -97.821
  H      -15.318      -8.281     -98.655
  H      -13.175      -7.096    -101.326
  H      -16.227      -7.499    -101.263
  H      -16.353      -5.173    -102.024
  H      -14.375      -4.350    -100.242
  H      -13.072     -13.115     -99.531
  H      -15.886      -4.793     -98.332
  H      -14.021     -12.794     -98.102
  H      -16.731      -4.018     -99.654
  P      -14.706      -3.754    -103.465
  C      -14.502      -3.206    -105.997
  O      -14.529      -4.198    -104.994
  O      -13.417      -2.820    -103.240
  O      -15.948      -3.003    -103.113
  H      -13.666      -1.893    -103.415
  H      -14.099      -3.647    -106.914
  H      -13.864      -2.365    -105.709
  H      -15.516      -2.849    -106.194
  H      -21.338      -7.194    -100.269
  H      -20.288      -5.966    -100.934
  H      -21.295      -5.601     -99.554

 3  4  5  6  7  8  9  10  11  12  13  23  27  28  29  30  32 0
 6-311+G(2d,p)
 ****
 34  35 0
 6-311+G(2d,p)
 ****
 1  2  14  15  16  17  18  19  20  21  22  24  25  26 0
 3-21G
 ****
 31  33  36  37  38  39  40  41  42  43  44  45  46 0
 3-21G
 ****


