%nproc=1
%NoSave
%Mem=1900MB
#P OB98/GEN NMR

erre ene a

0 1
  C     -236.745    -249.805       6.921
  O     -236.208    -248.571       6.485
  H     -236.967    -250.421       6.047
  H     -237.673    -249.627       7.470
  H     -236.030    -250.338       7.554
  P     -235.507    -247.651       7.598
  C     -233.348    -246.922       6.356
  O     -234.645    -246.555       6.806
  C     -232.810    -245.875       5.386
  O     -233.537    -245.916       4.143
  C     -232.904    -244.438       5.895
  O     -231.812    -244.108       6.745
  C     -232.825    -243.670       4.587
  O     -231.458    -243.633       4.125
  C     -233.668    -244.552       3.650
  N     -237.045    -241.044       2.229
  C     -235.665    -241.015       2.177
  N     -235.105    -239.889       1.685
  N     -234.902    -241.998       2.576
  C     -235.598    -243.053       3.070
  C     -236.966    -243.194       3.178
  C     -237.794    -242.105       2.716
  O     -239.024    -242.085       2.730
  N     -237.302    -244.402       3.725
  C     -236.144    -244.980       3.971
  N     -235.077    -244.200       3.593
  O     -234.402    -248.630       8.221
  O     -236.422    -247.124       8.654
  H     -230.941    -243.153       4.796
  H     -234.725    -248.964       9.079
  H     -237.587    -240.254       1.918
  H     -236.022    -245.961       4.411
  H     -233.293    -244.538       2.618
  H     -233.156    -242.636       4.682
  H     -235.633    -239.086       1.380
  H     -233.869    -244.242       6.380
  H     -234.093    -239.847       1.636
  H     -231.767    -246.133       5.161
  H     -233.409    -247.889       5.851
  H     -232.683    -247.008       7.222
  P     -232.126    -243.358       8.128
  C     -229.729    -243.278       9.111
  O     -230.800    -242.546       8.532
  O     -232.166    -244.562       9.182
  O     -233.393    -242.571       8.151
  H     -233.079    -244.689       9.508
  H     -228.919    -242.614       9.327
  H     -229.400    -244.031       8.425
  H     -230.062    -243.741      10.016

 6  7  8  9  10  11  12  13  14  15  26  29  33  34 0
 6-311+G(2d,p)
 ****
 36  38  39  40  41 0
 6-311+G(2d,p)
 ****
 1  2  3  4  5  16  17  18  19  20  21  22  23  24  25 0
 3-21G
 ****
 27  28  30  31  32  35  37  42  43  44  45  46  47 0
 3-21G
 ****
 48  49 0
 3-21G
 ****


