%nproc=1
%NoSave
%Mem=1900MB
#P OB98/GEN NMR

erre ene a

0 1
  C       59.063    -108.757      10.063
  O       59.633    -107.569       9.497
  P       59.009    -107.014       8.129
  C       61.081    -105.640       7.359
  O       59.722    -105.622       7.769
  C       61.859    -104.506       8.033
  O       61.770    -104.577       9.470
  C       63.348    -104.515       7.720
  O       63.621    -103.907       6.467
  C       63.892    -103.658       8.852
  O       63.693    -102.263       8.548
  C       63.005    -104.075      10.031
  N       66.130    -104.993      13.983
  C       65.776    -103.847      13.360
  N       64.953    -103.685      12.303
  C       64.462    -104.867      11.899
  C       64.732    -106.116      12.433
  C       65.612    -106.157      13.527
  N       65.966    -107.327      14.158
  N       64.053    -107.100      11.746
  C       63.372    -106.453      10.822
  N       63.593    -105.104      10.868
  O       57.533    -106.569       8.560
  O       58.978    -108.019       7.026
  H       64.039    -102.115       7.649
  H       56.912    -106.727       7.824
  H       66.213    -102.939      13.765
  H       62.708    -106.916      10.104
  H       62.753    -103.230      10.682
  H       64.965    -103.798       9.008
  H       63.757    -105.531       7.787
  H       61.420    -103.553       7.706
  H       61.146    -105.544       6.271
  H       66.579    -107.276      14.954
  H       65.564    -108.196      13.837
  H       61.515    -106.613       7.607
  P       64.081    -104.869       5.269
  C       65.381    -103.118       3.859
  O       64.227    -103.924       3.985
  O       62.764    -105.729       4.974
  O       65.254    -105.732       5.587
  H       63.010    -106.614       4.642
  H       65.466    -102.786       2.821
  H       66.284    -103.675       4.123
  H       65.291    -102.240       4.504
  H       59.579    -109.004      10.967
  H       59.157    -109.564       9.367
  H       58.028    -108.589      10.277

 3  4  5  6  7  8  9  10  11  12  22  25  29  30  31  32 0
 6-311+G(2d,p)
 ****
 33  36  37 0
 6-311+G(2d,p)
 ****
 1  2  13  14  15  16  17  18  19  20  21  23  24  26 0
 3-21G
 ****
 27  28  34  35  38  39  40  41  42  43  44  45  46  47  48 0
 3-21G
 ****


