%nproc=1
%NoSave
%Mem=1900MB
#P OB98/GEN NMR

erre ene a

0 1
  C     -911.193    -359.566     276.731
  O     -910.855    -359.037     278.023
  P     -911.761    -359.327     279.326
  C     -911.583    -361.869     279.684
  O     -911.151    -360.592     280.107
  C     -911.208    -362.968     280.702
  O     -909.813    -363.308     280.595
  C     -911.441    -362.571     282.150
  O     -912.811    -362.692     282.478
  C     -910.501    -363.564     282.871
  O     -911.148    -364.842     283.003
  C     -909.324    -363.643     281.908
  N     -906.267    -362.128     285.716
  C     -907.240    -363.044     285.674
  N     -908.036    -363.393     284.625
  C     -907.672    -362.682     283.521
  C     -906.693    -361.693     283.418
  C     -905.968    -361.427     284.593
  N     -904.966    -360.476     284.654
  N     -906.650    -361.192     282.163
  C     -907.573    -361.853     281.484
  N     -908.210    -362.779     282.272
  O     -913.237    -359.432     279.041
  O     -911.469    -358.088     280.294
  H     -911.266    -365.206     282.114
  H     -912.241    -357.935     280.885
  H     -907.441    -363.569     286.601
  H     -907.806    -361.721     280.427
  H     -908.921    -364.677     281.849
  H     -910.252    -363.233     283.879
  H     -911.084    -361.546     282.323
  H     -911.778    -363.876     280.447
  H     -911.102    -362.107     278.717
  H     -904.511    -360.306     285.534
  H     -904.750    -359.929     283.829
  H     -912.659    -361.867     279.532
  P     -913.529    -361.521     283.323
  C     -914.186    -360.098     281.308
  O     -914.659    -360.885     282.371
  O     -912.627    -360.545     283.992
  O     -914.401    -362.322     284.419
  H     -914.510    -361.787     285.213
  H     -913.898    -359.098     281.664
  H     -914.986    -360.008     280.561
  H     -913.322    -360.573     280.834
  H     -910.462    -359.253     276.015
  H     -912.157    -359.204     276.439
  H     -911.212    -360.635     276.777

 3  4  5  6  7  8  9  10  11  12  22  25  29  30  31  32 0
 6-311+G(2d,p)
 ****
 33  36  37 0
 6-311+G(2d,p)
 ****
 1  2  13  14  15  16  17  18  19  20  21  23  24  26 0
 3-21G
 ****
 27  28  34  35  38  39  40  41  42  43  44  45  46  47  48 0
 3-21G
 ****


