%nproc=1
%NoSave
%Mem=1900MB
#P OB98/GEN NMR

erre ene a

0 1
  C      291.224    -128.236    -255.805
  O      290.959    -129.558    -255.379
  H      290.809    -128.104    -256.808
  H      292.298    -128.045    -255.842
  H      290.742    -127.523    -255.131
  P      291.702    -130.089    -254.059
  C      293.569    -131.250    -255.410
  O      292.475    -131.425    -254.514
  C      294.218    -132.589    -255.763
  O      294.860    -133.162    -254.603
  C      293.237    -133.651    -256.229
  O      292.619    -133.382    -257.467
  C      294.053    -134.924    -256.066
  O      294.925    -135.158    -257.170
  C      294.882    -134.596    -254.798
  N      294.399    -135.305    -253.621
  C      295.140    -136.414    -253.231
  O      296.136    -136.814    -253.835
  N      294.678    -137.083    -252.130
  C      293.548    -136.785    -251.427
  O      293.176    -137.438    -250.459
  C      292.783    -135.621    -251.908
  C      293.236    -134.947    -252.968
  O      290.829    -130.275    -252.854
  O      292.891    -129.042    -253.841
  H      295.689    -135.661    -256.829
  H      293.269    -129.116    -252.929
  H      295.211    -137.882    -251.822
  H      291.877    -135.364    -251.382
  H      292.692    -134.083    -253.339
  H      295.934    -134.872    -254.951
  H      293.423    -135.809    -255.958
  H      292.422    -133.711    -255.496
  H      294.995    -132.402    -256.513
  H      294.308    -130.610    -254.915
  H      293.220    -130.748    -256.320
  P      291.317    -134.134    -257.990
  C      292.448    -134.764    -260.262
  O      291.350    -134.156    -259.592
  O      290.027    -133.794    -257.317
  O      291.662    -135.671    -257.627
  H      290.818    -136.109    -257.394
  H      292.307    -134.688    -261.320
  H      292.509    -135.795    -259.983
  H      293.354    -134.266    -259.987

 6  7  8  9  10  11  12  13  14  15  16  26  31  32  33  34  35 0
 6-311+G(2d,p)
 ****
 36  37 0
 6-311+G(2d,p)
 ****
 1  2  3  4  5  17  18  19  20  21  22  23  24  25 0
 3-21G
 ****
 27  28  29  30  38  39  40  41  42  43  44  45 0
 3-21G
 ****


