%nproc=1
%NoSave
%Mem=1900MB
#P OB98/GEN NMR

erre ene a

0 1
  C      712.275    -170.539    -374.797
  O      713.325    -169.944    -374.055
  P      714.313    -168.848    -374.661
  C      715.985    -168.741    -376.662
  O      715.257    -169.563    -375.753
  C      717.333    -169.342    -377.073
  O      718.088    -169.677    -375.890
  C      717.117    -170.660    -377.823
  O      716.827    -170.647    -379.211
  C      718.294    -171.545    -377.416
  O      719.339    -171.532    -378.394
  C      718.778    -170.919    -376.118
  N      720.198    -175.155    -373.706
  C      720.827    -174.481    -374.733
  N      721.885    -175.130    -375.301
  N      720.459    -173.297    -375.162
  C      719.344    -172.828    -374.557
  C      718.633    -173.403    -373.525
  C      719.067    -174.687    -373.039
  O      718.489    -175.365    -372.186
  N      717.504    -172.680    -373.217
  C      717.522    -171.682    -374.079
  N      718.584    -171.765    -374.942
  O      714.933    -167.894    -373.700
  O      713.306    -167.997    -375.596
  H      720.050    -172.140    -378.063
  H      713.598    -167.065    -375.576
  H      720.477    -176.106    -373.473
  H      716.759    -170.917    -374.154
  H      719.836    -170.682    -376.169
  H      717.965    -172.589    -377.317
  H      722.102    -176.090    -375.099
  H      716.234    -171.140    -377.371
  H      722.259    -174.735    -376.158
  H      717.935    -168.612    -377.621
  H      716.118    -167.761    -376.184
  H      715.370    -168.572    -377.560
  P      715.931    -171.713    -379.996
  C      716.175    -174.050    -381.009
  O      716.760    -173.062    -380.160
  O      715.883    -171.137    -381.501
  O      714.534    -171.878    -379.467
  H      715.096    -171.508    -381.955
  H      716.655    -175.011    -380.802
  H      716.360    -173.775    -382.049
  H      715.105    -174.131    -380.828
  H      711.754    -171.240    -374.179
  H      712.682    -171.046    -375.647
  H      711.596    -169.780    -375.126

 3  4  5  6  7  8  9  10  11  12  23  26  30  31 0
 6-311+G(2d,p)
 ****
 33  35  36  37  38 0
 6-311+G(2d,p)
 ****
 1  2  13  14  15  16  17  18  19  20  21  22  24  25 0
 3-21G
 ****
 27  28  29  32  34  39  40  41  42  43  44  45  46  47  48  49 0
 3-21G
 ****


