%nproc=1
%NoSave
%Mem=1900MB
#P OB98/GEN NMR

erre ene a

0 1
  C     -101.859    -109.120    -150.643
  O     -101.782    -109.503    -149.284
  H     -102.909    -108.988    -150.911
  H     -101.428    -109.899    -151.278
  H     -101.331    -108.176    -150.801
  P     -100.312    -109.729    -148.683
  C     -100.279    -108.664    -146.312
  O     -100.029    -108.494    -147.701
  C     -101.444    -107.776    -145.887
  O     -102.683    -108.316    -146.403
  C     -101.636    -107.690    -144.379
  O     -100.718    -106.804    -143.767
  C     -103.080    -107.224    -144.293
  O     -103.181    -105.803    -144.446
  C     -103.733    -107.935    -145.484
  N     -108.409    -109.705    -144.462
  C     -107.979    -108.515    -144.933
  N     -106.712    -108.125    -145.190
  C     -105.850    -109.124    -144.940
  C     -106.142    -110.390    -144.462
  C     -107.495    -110.673    -144.220
  N     -107.933    -111.875    -143.717
  N     -104.984    -111.124    -144.293
  C     -104.012    -110.320    -144.671
  N     -104.487    -109.103    -145.073
  O      -99.362    -109.444    -149.938
  O     -100.069    -111.078    -148.096
  H     -104.131    -105.587    -144.375
  H      -99.079    -110.292    -150.332
  H     -108.751    -107.775    -145.117
  H     -102.957    -110.567    -144.664
  H     -104.422    -107.280    -146.031
  H     -103.517    -107.487    -143.330
  H     -101.562    -108.690    -143.933
  H     -101.301    -106.778    -146.319
  H      -99.385    -108.382    -145.745
  H     -100.506    -109.717    -146.119
  H     -108.910    -111.985    -143.503
  H     -107.249    -112.562    -143.425
  P     -100.236    -107.142    -142.276
  C      -97.723    -106.512    -142.566
  O      -98.685    -107.536    -142.356
  O     -100.964    -108.528    -141.943
  O     -100.555    -106.092    -141.267
  H     -101.214    -108.553    -141.000
  H      -96.744    -106.943    -142.593
  H      -97.778    -105.802    -141.768
  H      -97.923    -106.020    -143.495

 6  7  8  9  10  11  12  13  14  15  25  28  32  33  34  35 0
 6-311+G(2d,p)
 ****
 36  37  40 0
 6-311+G(2d,p)
 ****
 1  2  3  4  5  16  17  18  19  20  21  22  23  24 0
 3-21G
 ****
 26  27  29  30  31  38  39 41  42  43  44  45  46  47  48 0
 3-21G
 ****


