%nproc=1
%NoSave
%Mem=1900MB
#P OB98/GEN NMR

erre ene a

0 1
  C     -195.021    -257.956     644.334
  O     -195.638    -259.230     644.398
  H     -193.940    -258.097     644.254
  H     -195.239    -257.392     645.245
  H     -195.374    -257.403     643.461
  P     -197.240    -259.262     644.347
  C     -197.321    -260.165     641.881
  O     -197.672    -259.138     642.800
  C     -197.657    -259.724     640.458
  O     -196.798    -258.653     640.023
  C     -197.442    -260.806     639.407
  O     -198.399    -261.838     639.484
  C     -197.525    -259.974     638.138
  O     -198.889    -259.690     637.790
  C     -196.790    -258.685     638.571
  N     -195.433    -258.605     638.038
  C     -195.332    -258.389     636.649
  O     -196.352    -258.269     635.971
  N     -194.089    -258.350     636.088
  C     -193.032    -258.484     636.828
  N     -191.826    -258.444     636.198
  C     -193.097    -258.687     638.290
  C     -194.309    -258.739     638.821
  O     -197.638    -257.827     644.939
  O     -197.878    -260.417     645.045
  H     -199.334    -260.553     637.708
  H     -197.204    -257.085     644.485
  H     -192.188    -258.788     638.870
  H     -194.444    -258.890     639.884
  H     -197.340    -257.795     638.228
  H     -197.078    -260.492     637.286
  H     -196.422    -261.213     639.481
  H     -198.696    -259.359     640.449
  H     -191.823    -258.325     635.198
  H     -197.825    -261.097     642.128
  H     -190.938    -258.574     636.670
  H     -196.241    -260.338     641.977
  P     -197.968    -263.324     639.904
  C     -199.969    -263.703     641.481
  O     -198.550    -263.571     641.384
  O     -196.513    -263.628     639.751
  O     -198.921    -264.252     639.002
  H     -199.869    -264.118     639.154
  H     -200.243    -263.863     642.503
  H     -200.291    -264.535     640.891
  H     -200.436    -262.810     641.122

 6  7  8  9  10  11  12  13  14  15  16  26  30  31  32  33  35 0
 6-311+G(2d,p)
 ****
 37  38 0
 6-311+G(2d,p)
 ****
 1  2  3  4  5  17  18  19  20  21  22  23  24  25 0
 3-21G
 ****
 27  28  29  34  36  39  40  41  42  43  44  45  46 0
 3-21G
 ****


