%nproc=1
%NoSave
%Mem=1900MB
#P OB98/GEN NMR

erre ene a

0 1
  C     -892.790    -217.086     561.197
  O     -893.220    -216.056     562.073
  H     -891.770    -217.386     561.442
  H     -893.450    -217.951     561.320
  H     -892.840    -216.756     560.155
  P     -892.490    -214.632     561.919
  C     -894.640    -213.205     562.264
  O     -893.620    -213.625     561.369
  C     -895.390    -212.007     561.684
  O     -894.430    -211.052     561.176
  C     -896.340    -212.377     560.533
  O     -897.530    -211.583     560.646
  C     -895.570    -211.974     559.296
  O     -896.420    -211.700     558.191
  C     -894.790    -210.765     559.804
  N     -892.840    -207.935     556.026
  C     -894.020    -207.893     556.671
  N     -894.460    -208.675     557.674
  C     -893.510    -209.559     558.039
  C     -892.260    -209.729     557.482
  C     -891.930    -208.861     556.411
  N     -890.730    -208.930     555.728
  N     -891.590    -210.768     558.096
  C     -892.420    -211.207     559.015
  N     -893.610    -210.514     559.007
  O     -891.540    -214.869     560.648
  O     -891.720    -214.165     563.107
  H     -895.880    -211.713     557.370
  H     -890.740    -215.350     560.925
  H     -894.710    -207.119     556.321
  H     -892.220    -212.023     559.694
  H     -895.390    -209.840     559.787
  H     -894.880    -212.781     559.005
  H     -896.600    -213.444     560.531
  H     -895.930    -211.513     562.497
  H     -894.180    -212.924     563.216
  H     -890.610    -208.320     554.945
  H     -890.080    -209.656     555.962
  H     -895.330    -214.031     562.443
  P     -898.560    -212.020     561.803
  C     -898.220    -209.887     563.247
  O     -898.120    -211.307     563.175
  O     -898.240    -213.565     562.050
  O     -900.000    -211.824     561.417
  H     -899.040    -214.086     562.038
  H     -897.896    -209.555     564.211
  H     -899.237    -209.593     563.092
  H     -897.602    -209.447     562.492

 6  7  8  9  10  11  12  13  14  15  25  28  32  33  34  35 0
 6-311+G(2d,p)
 ****
 36  39  40 0
 6-311+G(2d,p)
 ****
 1  2  3  4  5  16  17  18  19  20  21  22  23  24 0
 3-21G
 ****
 26  27  29  30  31  37  38  41  42  43  44  45  46  47 0
 3-21G
 ****
 48 0
 3-21G
 ****


