%nproc=1
%NoSave
%Mem=1900MB
#P OB98/GEN NMR

erre ene a

0 1
  C     1637.791     839.884     422.213
  O     1636.768     840.259     421.280
  P     1635.579     839.183     421.061
  C     1633.953     841.241     420.959
  O     1634.232     839.952     421.490
  C     1632.462     841.544     421.081
  O     1631.707     840.782     420.105
  C     1631.870     841.184     422.441
  O     1632.254     842.131     423.431
  C     1630.371     841.167     422.091
  O     1629.856     842.516     422.083
  C     1630.381     840.607     420.659
  N     1629.978     839.202     420.620
  C     1629.057     838.836     419.646
  O     1628.581     839.659     418.844
  N     1628.702     837.544     419.604
  C     1629.134     836.540     420.445
  O     1628.791     835.389     420.345
  C     1630.078     836.978     421.481
  C     1630.451     838.267     421.527
  O     1635.842     838.153     422.245
  O     1635.580     838.580     419.693
  H     1636.191     838.586     423.048
  H     1628.902     842.442     421.864
  H     1628.055     837.256     418.853
  H     1630.411     836.250     422.208
  H     1631.115     838.607     422.312
  H     1629.712     841.163     420.020
  H     1629.788     840.609     422.803
  H     1632.187     840.181     422.715
  H     1632.308     842.613     420.861
  H     1634.261     841.293     419.908
  H     1634.565     841.981     421.500
  P     1632.381     841.596     424.932
  C     1634.876     841.077     424.333
  O     1633.682     840.656     424.948
  O     1631.164     840.556     425.010
  O     1632.369     842.675     425.968
  H     1631.086     840.012     424.197
  H     1635.709     840.482     424.726
  H     1635.076     842.132     424.524
  H     1634.831     840.909     423.240
  H     1638.519     840.665     422.277
  H     1638.263     838.983     421.881
  H     1637.354     839.724     423.176

 3  4  5  6  7  8  9  10  11  12  13  24  28  29  30  31  32 0
 6-311+G(2d,p)
 ****
 33  34 0
 6-311+G(2d,p)
 ****
 1  2  14  15  16  17  18  19  20  21  22  23  25  26  27 0
 3-21G
 ****
 35  36  37  38  39  40  41  42  43  44  45 0
 3-21G
 ****


