%nproc=1
%NoSave
%Mem=1900MB
#P OB98/GEN NMR

erre ene a

0 1
  C     -889.820     193.804     267.905
  O     -891.200     193.472     268.124
  P     -891.580     191.971     268.570
  C     -893.270     192.180     270.557
  O     -893.070     191.980     269.163
  C     -894.720     191.878     270.925
  O     -895.610     192.897     270.399
  C     -895.260     190.562     270.364
  O     -894.780     189.445     271.104
  C     -896.770     190.775     270.495
  O     -897.220     190.478     271.822
  C     -896.900     192.282     270.190
  N     -897.410     192.542     268.851
  C     -898.650     193.151     268.773
  O     -899.350     193.415     269.748
  N     -899.110     193.418     267.501
  C     -898.480     193.078     266.334
  O     -898.940     193.322     265.229
  C     -897.200     192.358     266.484
  C     -896.740     192.118     267.711
  O     -890.700     191.783     269.897
  O     -891.280     190.905     267.575
  H     -896.830     189.618     272.071
  H     -890.490     190.841     270.022
  H     -900.000     193.881     267.416
  H     -896.690     192.045     265.586
  H     -895.800     191.591     267.847
  H     -897.570     192.749     270.927
  H     -897.330     190.130     269.804
  H     -894.990     190.468     269.311
  H     -894.810     191.897     272.027
  H     -893.050     193.217     270.814
  H     -892.590     191.525     271.111
  P     -894.520     188.094     270.275
  C     -892.520     189.090     268.903
  O     -892.970     188.148     269.859
  O     -895.330     188.416     268.921
  O     -894.980     186.875     270.992
  H     -895.290     189.355     268.688
  H     -893.090     190.020     268.961
  H     -892.630     188.667     267.896
  H     -891.470     189.303     269.094
  H     -889.742     194.831     267.617
  H     -889.423     193.184     267.128
  H     -889.267     193.644     268.807

 3  4  5  6  7  8  9  10  11  12  13  23  28  29  30  31  32 0
 6-311+G(2d,p)
 ****
 33  34 0
 6-311+G(2d,p)
 ****
 1  2  14  15  16  17  18  19  20  21  22  24  25  26 0
 3-21G
 ****
 27  35  36  37  38  39  40  41  42  43  44  45 0
 3-21G
 ****


