%nproc=1
%NoSave
%Mem=1900MB
#P OB98/GEN NMR

erre ene a

0 1
  C      169.325     257.143     488.803
  O      168.309     257.133     489.793
  P      166.873     257.799     489.517
  C      167.906     259.888     490.635
  O      167.144     259.378     489.547
  C      167.433     261.301     490.987
  O      167.835     262.218     489.954
  C      165.922     261.443     491.107
  O      165.449     260.907     492.334
  C      165.767     262.955     490.943
  O      166.068     263.623     492.177
  C      166.849     263.271     489.894
  N      166.307     263.416     488.544
  C      165.654     264.619     488.254
  O      165.552     265.505     489.110
  N      165.150     264.812     486.992
  C      165.270     263.870     486.098
  N      164.812     264.144     484.846
  C      165.902     262.568     486.376
  C      166.401     262.413     487.601
  O      165.781     257.333     490.417
  O      166.595     257.526     487.969
  H      166.148     264.576     491.964
  H      166.143     256.661     487.794
  H      165.959     261.817     485.603
  H      166.895     261.495     487.880
  H      167.379     264.197     490.163
  H      164.760     263.259     490.634
  H      165.423     260.930     490.272
  H      167.920     261.598     491.922
  H      164.545     265.103     484.651
  H      168.960     259.930     490.336
  H      165.118     263.607     484.044
  H      167.810     259.216     491.495
  P      163.914     260.454     492.393
  C      163.014     262.200     494.092
  O      163.074     261.778     492.735
  O      163.846     259.586     493.741
  O      163.448     259.689     491.203
  H      163.854     258.627     493.534
  H      162.622     263.223     494.118
  H      164.008     262.193     494.544
  H      162.340     261.551     494.653
  H      170.197     256.653     489.182
  H      169.566     258.154     488.550
  H      168.978     256.630     487.931

 3  4  5  6  7  8  9  10  11  12  13  23  27  28  29  30  32 0
 6-311+G(2d,p)
 ****
 34  35 0
 6-311+G(2d,p)
 ****
 1  2  14  15  16  17  18  19  20  21  22  24  25  26 0
 3-21G
 ****
 31  33  36  37  38  39  40  41  42  43  44  45  46 0
 3-21G
 ****


