%nproc=1
%NoSave
%Mem=1900MB
#P OB98/GEN NMR

erre ene a

0 1
  C      -12.353    -479.097     203.155
  O      -12.585    -480.279     203.898
  H      -11.787    -478.399     203.777
  H      -13.302    -478.626     202.875
  H      -11.767    -479.317     202.258
  P      -13.500    -481.426     203.244
  C      -11.638    -483.126     202.634
  O      -12.539    -482.134     202.161
  C      -12.037    -484.497     202.110
  O      -12.012    -484.534     200.663
  C      -11.125    -485.644     202.537
  O      -11.288    -486.027     203.895
  C      -11.581    -486.726     201.569
  O      -12.836    -487.267     202.007
  C      -11.746    -485.911     200.263
  N      -10.566    -485.971     199.397
  C      -10.605    -486.906     198.351
  O      -11.594    -487.618     198.188
  N       -9.503    -487.021     197.529
  C       -8.454    -486.295     197.747
  N       -7.375    -486.488     196.939
  C       -8.374    -485.294     198.832
  C       -9.446    -485.188     199.609
  O      -14.832    -480.990     202.722
  O      -13.597    -482.555     204.375
  H      -13.133    -487.896     201.319
  H      -14.166    -483.284     204.022
  H       -7.468    -484.717     198.973
  H       -9.458    -484.486     200.438
  H      -12.621    -486.256     199.695
  H      -10.874    -487.565     201.497
  H      -10.071    -485.404     202.328
  H      -13.081    -484.684     202.418
  H       -7.448    -487.220     196.233
  H      -11.648    -483.100     203.731
  H       -6.447    -486.181     197.204
  H      -10.617    -482.909     202.288
  P      -10.073    -486.778     204.626
  C       -8.895    -484.486     205.037
  O       -8.799    -485.803     204.519
  O       -9.727    -487.968     203.609
  O      -10.347    -487.270     206.014
  H      -10.186    -488.786     203.856
  H       -7.967    -483.975     204.886
  H       -9.112    -484.529     206.084
  H       -9.678    -483.960     204.532

 6  7  8  9  10  11  12  13  14  15  16  26  30  31  32  33  35 0
 6-311+G(2d,p)
 ****
 37  38 0
 6-311+G(2d,p)
 ****
 1  2  3  4  5  17  18  19  20  21  22  23  24  25 0
 3-21G
 ****
 27  28  29  34  36  39  40  41  42  43  44  45  46 0
 3-21G
 ****


