%nproc=1
%NoSave
%Mem=1900MB
#P OB98/GEN NMR

erre ene a

0 1
  C        7.753    -198.091    -472.347
  O        8.910    -198.887    -472.547
  P        9.051    -200.209    -471.647
  C        8.804    -202.038    -473.496
  O        8.220    -201.354    -472.398
  C        8.631    -203.546    -473.315
  O        9.484    -204.025    -472.249
  C        7.216    -203.976    -472.952
  O        6.409    -204.052    -474.112
  C        7.466    -205.328    -472.288
  O        7.639    -206.359    -473.276
  C        8.775    -205.071    -471.523
  N        8.300    -206.746    -466.780
  C        8.307    -207.443    -467.974
  N        8.226    -208.788    -467.882
  N        8.397    -206.878    -469.146
  C        8.464    -205.525    -469.086
  C        8.448    -204.719    -467.971
  C        8.403    -205.365    -466.677
  O        8.492    -204.798    -465.591
  N        8.507    -203.391    -468.307
  C        8.591    -203.401    -469.622
  N        8.589    -204.668    -470.144
  O        8.167    -199.866    -470.360
  O       10.452    -200.594    -471.297
  H        6.898    -206.330    -473.907
  H        8.734    -199.564    -469.622
  H        8.248    -207.235    -465.906
  H        8.674    -202.518    -470.237
  H        9.426    -205.951    -471.517
  H        6.631    -205.638    -471.656
  H        8.129    -209.293    -467.013
  H        6.780    -203.283    -472.222
  H        8.225    -209.319    -468.745
  H        8.956    -204.036    -474.242
  H        9.869    -201.799    -473.545
  H        8.326    -201.706    -474.423
  P        4.816    -203.992    -473.912
  C        4.520    -201.429    -473.630
  O        4.499    -202.702    -473.017
  O        4.522    -205.223    -472.931
  O        4.030    -204.103    -475.175
  H        3.667    -205.634    -473.167
  H        3.818    -200.775    -473.104
  H        4.240    -201.479    -474.685
  H        5.527    -201.006    -473.546
  H        7.783    -197.247    -473.004
  H        7.724    -197.752    -471.333
  H        6.879    -198.673    -472.553

 3  4  5  6  7  8  9  10  11  12  23  26  30  31 0
 6-311+G(2d,p)
 ****
 33  35  36  37  38 0
 6-311+G(2d,p)
 ****
 1  2  13  14  15  16  17  18  19  20  21  22  24  25 0
 3-21G
 ****
 27  28  29  32  34  39  40  41  42  43  44  45  46  47  48  49 0
 3-21G
 ****


