%nproc=1
%NoSave
%Mem=1900MB
#P OB98/GEN NMR

erre ene a

0 1
  C     -394.237    -170.430     143.288
  O     -393.988    -170.503     141.894
  P     -392.632    -169.832     141.352
  C     -393.485    -167.404     140.950
  O     -392.715    -168.286     141.765
  C     -392.927    -165.985     141.033
  O     -392.833    -165.572     142.408
  C     -391.530    -165.831     140.465
  O     -391.570    -165.798     139.050
  C     -391.080    -164.525     141.105
  O     -391.507    -163.396     140.324
  C     -391.806    -164.557     142.473
  N     -390.895    -164.786     143.584
  C     -391.067    -163.963     144.697
  O     -391.941    -163.089     144.692
  N     -390.222    -164.117     145.770
  C     -389.285    -165.012     145.726
  N     -388.480    -165.131     146.820
  C     -389.057    -165.890     144.563
  C     -389.884    -165.720     143.527
  O     -392.851    -169.805     139.765
  O     -391.379    -170.544     141.740
  H     -390.950    -163.407     139.518
  H     -391.993    -169.817     139.297
  H     -388.260    -166.623     144.579
  H     -389.786    -166.323     142.633
  H     -392.322    -163.603     142.650
  H     -389.992    -164.464     141.185
  H     -390.882    -166.652     140.800
  H     -393.631    -165.311     140.518
  H     -388.657    -164.510     147.602
  H     -394.521    -167.403     141.306
  H     -387.739    -165.814     146.891
  H     -393.472    -167.771     139.919
  P     -390.430    -166.598     138.250
  C     -389.305    -164.297     138.069
  O     -389.126    -165.670     138.363
  O     -390.874    -166.372     136.721
  O     -390.250    -168.037     138.580
  H     -390.303    -166.904     136.135
  H     -388.392    -163.764     138.328
  H     -390.136    -163.885     138.651
  H     -389.499    -164.168     136.999
  H     -395.166    -170.912     143.510
  H     -394.287    -169.404     143.588
  H     -393.446    -170.918     143.818

 3  4  5  6  7  8  9  10  11  12  13  21  23  27  28  29  30  32 0
 6-311+G(2d,p)
 ****
 34  35 0
 6-311+G(2d,p)
 ****
 1  2  14  15  16  17  18  19  20  22  24  25  26 0
 3-21G
 ****
 31  33  36  37  38  39  40  41  42  43  44  45  46 0
 3-21G
 ****


