%nproc=1
%NoSave
%Mem=1900MB
#P OB98/GEN NMR

erre ene a

0 1
  C     -124.294    -217.482     124.066
  O     -124.741    -218.730     124.571
  P     -124.773    -220.028     123.641
  C     -127.128    -219.440     122.636
  O     -125.766    -219.756     122.426
  C     -127.976    -220.133     121.559
  O     -127.706    -219.546     120.265
  C     -127.665    -221.624     121.479
  O     -128.585    -222.369     122.267
  C     -127.780    -221.906     119.988
  O     -129.159    -222.085     119.616
  C     -127.225    -220.599     119.380
  N     -125.754    -220.454     119.262
  C     -125.061    -221.231     118.339
  O     -125.595    -222.023     117.571
  N     -123.695    -221.079     118.344
  C     -122.989    -220.215     119.132
  O     -121.776    -220.259     119.304
  C     -123.793    -219.242     119.883
  C     -125.114    -219.421     119.932
  O     -125.564    -221.091     124.532
  O     -123.439    -220.543     123.211
  H     -129.658    -221.332     119.981
  H     -124.945    -221.697     124.985
  H     -123.178    -221.736     117.773
  H     -123.277    -218.451     120.413
  H     -125.731    -218.729     120.510
  H     -127.644    -220.417     118.388
  H     -127.273    -222.832     119.724
  H     -126.629    -221.819     121.791
  H     -129.039    -219.973     121.789
  H     -127.275    -218.354     122.596
  H     -127.442    -219.770     123.634
  P     -128.132    -223.768     122.895
  C     -128.330    -225.081     120.708
  O     -127.455    -224.575     121.688
  O     -129.182    -224.507     123.654
  O     -126.898    -223.362     123.840
  H     -127.202    -223.274     124.767
  H     -127.748    -225.446     119.860
  H     -129.014    -224.296     120.357
  H     -128.914    -225.914     121.117
  H     -124.349    -216.744     124.839
  H     -124.915    -217.186     123.246
  H     -123.282    -217.574     123.732

 3  4  5  6  7  8  9  10  11  12  13  23  28  29  30  31  32 0
 6-311+G(2d,p)
 ****
 33  34 0
 6-311+G(2d,p)
 ****
 1  2  14  15  16  17  18  19  20  21  22  24  25  26  27 0
 3-21G
 ****
 35  36  37  38  39  40  41  42  43  44  45 0
 3-21G
 ****


