%nproc=1
%NoSave
%Mem=1900MB
#P OB98/GEN NMR

erre ene a

0 1
  C      341.875     499.034    -312.372
  O      343.237     499.331    -312.138
  H      341.238     499.836    -311.983
  H      341.714     498.958    -313.455
  H      341.609     498.080    -311.910
  P      343.686     499.480    -310.604
  C      344.143     501.874    -309.699
  O      343.175     500.925    -310.134
  C      344.781     502.550    -310.913
  O      343.776     502.835    -311.911
  C      345.446     503.888    -310.609
  O      346.746     503.732    -310.063
  C      345.506     504.494    -312.000
  O      346.582     503.895    -312.745
  C      344.152     504.062    -312.585
  N      342.011     508.333    -314.457
  C      343.070     507.601    -314.860
  N      343.580     506.477    -314.311
  C      342.876     506.126    -313.219
  C      341.789     506.782    -312.678
  C      341.335     507.934    -313.347
  N      340.272     508.693    -312.926
  N      341.351     506.140    -311.527
  C      342.150     505.110    -311.402
  N      343.097     505.059    -312.391
  O      345.278     499.668    -310.698
  O      343.298     498.354    -309.699
  H      346.376     504.032    -313.690
  H      345.694     499.447    -309.841
  H      343.575     507.957    -315.759
  H      342.091     504.362    -310.612
  H      344.205     503.851    -313.659
  H      345.683     505.569    -311.994
  H      344.817     504.519    -309.970
  H      345.502     501.846    -311.351
  H      344.918     501.355    -309.126
  H      340.154     509.596    -313.363
  H      339.864     508.492    -312.023
  H      343.654     502.623    -309.059
  P      347.519     505.062    -309.604
  C      349.503     505.816    -311.104
  O      348.096     505.720    -310.951
  O      348.825     504.493    -308.878
  O      346.725     505.976    -308.722
  H      349.164     505.128    -308.217
  H      349.729     506.273    -312.045
  H      349.933     504.837    -311.070
  H      349.908     506.411    -310.312

 6  7  8  9  10  11  12  13  14  15  25  28  32  33  34  35 0
 6-311+G(2d,p)
 ****
 36  39  40 0
 6-311+G(2d,p)
 ****
 1  2  3  4  5  16  17  18  19  20  21  22  23  24 0
 3-21G
 ****
 26  27  29  30  31  37  38  41  42  43  44  45  46  47 0
 3-21G
 ****
 48 0
 3-21G
 ****


