%nproc=1
%NoSave
%Mem=1900MB
#P OB98/GEN NMR

erre ene a

0 1
  C      323.620    -417.465     -58.564
  O      324.528    -416.502     -59.064
  H      323.261    -418.072     -59.397
  H      322.765    -416.984     -58.085
  H      324.129    -418.119     -57.849
  P      324.985    -415.315     -58.086
  C      327.407    -416.171     -57.861
  O      326.172    -415.929     -57.192
  C      328.590    -415.652     -57.047
  O      328.486    -414.228     -56.845
  C      328.688    -416.240     -55.647
  O      328.982    -417.616     -55.599
  C      329.619    -415.252     -54.959
  O      330.993    -415.523     -55.229
  C      329.198    -413.919     -55.624
  N      328.406    -413.078     -54.732
  C      329.055    -411.970     -54.205
  O      330.229    -411.694     -54.435
  N      328.306    -411.188     -53.365
  C      327.026    -411.434     -52.973
  O      326.416    -410.708     -52.196
  C      326.406    -412.646     -53.535
  C      327.109    -413.401     -54.375
  O      323.888    -414.679     -57.283
  O      325.751    -414.294     -59.051
  H      331.178    -416.422     -54.896
  H      325.864    -413.411     -58.622
  H      328.754    -410.370     -52.980
  H      325.392    -412.878     -53.236
  H      326.675    -414.298     -54.808
  H      330.090    -413.349     -55.924
  H      329.494    -415.258     -53.873
  H      327.708    -416.127     -55.161
  H      329.506    -415.838     -57.620
  H      327.375    -415.645     -58.821
  H      327.517    -417.243     -58.049
  P      328.241    -418.651     -54.643
  C      327.105    -420.005     -56.571
  O      326.942    -419.208     -55.403
  O      328.099    -418.256     -53.208
  O      329.240    -419.921     -54.706
  H      329.211    -420.348     -53.827
  H      326.144    -420.289     -56.946
  H      327.666    -420.883     -56.328
  H      327.627    -419.443     -57.317

 6  7  8  9  10  11  12  13  14  15  16  26  31  32  33  34  35 0
 6-311+G(2d,p)
 ****
 36  37 0
 6-311+G(2d,p)
 ****
 1  2  3  4  5  17  18  19  20  21  22  23  24  25 0
 3-21G
 ****
 27  28  29  30  38  39  40  41  42  43  44  45 0
 3-21G
 ****


