%nproc=1
%NoSave
%Mem=1900MB
#P OB98/GEN NMR

erre ene a

0 1
  C     -897.830    -899.381    -852.768
  O     -897.330    -898.071    -852.996
  P     -896.130    -897.871    -854.015
  C     -896.520    -895.351    -853.513
  O     -895.610    -896.351    -853.934
  C     -895.880    -893.991    -853.379
  O     -894.680    -894.091    -852.565
  C     -895.420    -893.371    -854.704
  O     -896.360    -892.551    -855.433
  C     -894.310    -892.431    -854.240
  O     -894.880    -891.171    -853.777
  C     -893.670    -893.151    -853.052
  N     -888.630    -892.691    -853.734
  C     -889.570    -891.801    -853.359
  N     -890.900    -891.991    -853.209
  C     -891.190    -893.281    -853.444
  C     -890.340    -894.301    -853.832
  C     -889.010    -893.971    -853.982
  N     -888.030    -894.871    -854.356
  N     -891.050    -895.511    -854.019
  C     -892.300    -895.201    -853.774
  N     -892.450    -893.871    -853.417
  O     -896.340    -898.381    -855.410
  O     -894.940    -898.681    -853.285
  H     -895.390    -890.811    -854.533
  H     -894.400    -899.131    -853.987
  H     -889.240    -890.791    -853.159
  H     -893.130    -895.901    -853.843
  H     -893.430    -892.511    -852.212
  H     -893.620    -892.171    -855.035
  H     -895.000    -894.131    -855.361
  H     -896.570    -893.301    -852.863
  H     -896.940    -895.661    -852.551
  H     -887.080    -894.521    -854.482
  H     -888.320    -895.811    -854.615
  H     -897.370    -895.391    -854.205
  P     -897.460    -893.231    -856.392
  C     -899.080    -891.131    -856.264
  O     -898.230    -891.981    -857.052
  O     -898.360    -894.231    -855.752
  O     -896.580    -893.771    -857.607
  H     -896.160    -893.101    -858.135
  H     -899.320    -890.261    -856.865
  H     -898.560    -890.831    -855.353
  H     -900.000    -891.671    -856.018
  H     -898.631    -899.339    -852.060
  H     -897.046    -900.000    -852.384
  H     -898.189    -899.791    -853.689

 3  4  5  6  7  8  9  10  11  12  22  25  29  30  31  32 0
 6-311+G(2d,p)
 ****
 33  36  37 0
 6-311+G(2d,p)
 ****
 1  2  13  14  15  16  17  18  19  20  21  23  24  26 0
 3-21G
 ****
 27  28  34  35  38  39  40  41  42  43  44  45  46  47  48 0
 3-21G
 ****


