%nproc=1
%NoSave
%Mem=1900MB
#P OB98/GEN NMR

erre ene a

0 1
  C      -87.760       1.198     414.008
  O      -87.510       2.592     414.204
  P      -86.248       3.203     413.421
  C      -86.102       5.102     411.658
  O      -86.794       3.950     412.105
  C      -86.931       5.863     410.616
  O      -87.134       5.093     409.412
  C      -88.322       6.240     411.108
  O      -88.250       7.388     411.932
  C      -89.061       6.482     409.795
  O      -88.829       7.824     409.310
  C      -88.424       5.450     408.849
  N      -92.217       3.369     406.206
  C      -91.788       4.686     406.255
  N      -92.446       5.561     405.470
  N      -90.800       5.095     407.006
  C      -90.230       4.106     407.740
  C      -90.550       2.770     407.756
  C      -91.646       2.329     406.921
  O      -92.054       1.174     406.827
  N      -89.709       2.062     408.580
  C      -88.971       2.996     409.153
  N      -89.204       4.245     408.631
  O      -85.506       1.905     412.850
  O      -85.344       4.017     414.288
  H      -89.159       8.461     409.969
  H      -84.660       1.771     413.318
  H      -92.987       3.111     405.616
  H      -88.239       2.817     409.927
  H      -88.236       5.881     407.859
  H      -90.142       6.384     409.914
  H      -93.213       5.316     404.866
  H      -88.774       5.392     411.645
  H      -92.140       6.526     405.484
  H      -86.373       6.770     410.352
  H      -85.140       4.821     411.224
  H      -85.883       5.742     412.520
  P      -88.575       7.212     413.494
  C      -88.075       5.024     414.804
  O      -87.556       6.123     414.078
  O      -89.991       6.455     413.486
  O      -88.651       8.489     414.260
  H      -90.580       6.861     414.150
  H      -87.411       4.169     414.672
  H      -89.080       4.753     414.463
  H      -88.116       5.288     415.869
  H      -88.619       0.906     414.575
  H      -86.910       0.634     414.332
  H      -87.938       1.010     412.970

 3  4  5  6  7  8  9  10  11  12  23  26  30  31 0
 6-311+G(2d,p)
 ****
 33  35  36  37  38 0
 6-311+G(2d,p)
 ****
 1  2  13  14  15  16  17  18  19  20  21  22  24  25 0
 3-21G
 ****
 27  28  29  32  34  39  40  41  42  43  44  45  46  47  48  49 0
 3-21G
 ****


