%nproc=1
%NoSave
%Mem=1900MB
#P OB98/GEN NMR

erre ene a

0 1
  C      249.953     254.399     337.497
  O      251.011     254.588     338.429
  P      252.406     253.852     338.122
  C      253.515     251.620     338.877
  O      252.334     252.422     338.857
  C      253.714     250.970     340.243
  O      254.224     251.960     341.169
  C      252.443     250.365     340.847
  O      252.812     249.166     341.530
  C      252.008     251.399     341.860
  O      251.206     250.826     342.890
  C      253.366     251.955     342.327
  N      253.245     253.288     342.914
  C      253.418     253.386     344.299
  O      253.579     252.368     344.974
  N      253.350     254.624     344.888
  C      253.029     255.659     344.175
  N      252.985     256.862     344.800
  C      252.722     255.580     342.727
  C      252.867     254.378     342.168
  O      253.448     254.674     339.018
  O      252.792     253.826     336.684
  H      250.981     251.528     343.532
  H      254.323     254.702     338.595
  H      252.422     256.465     342.191
  H      252.683     254.224     341.113
  H      253.819     251.285     343.075
  H      251.424     252.190     341.369
  H      251.684     250.139     340.091
  H      254.495     250.195     340.143
  H      253.185     256.893     345.790
  H      254.375     252.259     338.668
  H      252.737     257.721     344.324
  H      253.448     250.863     338.093
  P      251.903     247.865     341.293
  C      249.470     247.277     341.871
  O      250.564     248.130     342.136
  O      252.654     246.783     342.219
  O      251.741     247.364     339.899
  H      252.227     245.912     342.114
  H      248.683     247.480     342.603
  H      249.772     246.228     341.953
  H      249.076     247.480     340.869
  H      249.090     254.941     337.822
  H      249.716     253.357     337.432
  H      250.257     254.756     336.535

 3  4  5  6  7  8  9  10  11  12  13  21  23  27  28  29  30  32 0
 6-311+G(2d,p)
 ****
 34  35 0
 6-311+G(2d,p)
 ****
 1  2  14  15  16  17  18  19  20  22  24  25  26 0
 3-21G
 ****
 31  33  36  37  38  39  40  41  42  43  44  45  46 0
 3-21G
 ****


