%nproc=1
%NoSave
%Mem=1900MB
#P OB98/GEN NMR

erre ene a

0 1
  C     -240.537     -97.591     329.368
  O     -239.723     -96.445     329.517
  H     -240.190     -98.157     328.500
  H     -241.578     -97.298     329.206
  H     -240.460     -98.225     330.257
  P     -240.089     -95.454     330.725
  C     -237.753     -94.355     330.915
  O     -239.110     -94.199     330.522
  C     -236.910     -93.190     330.402
  O     -236.620     -93.362     329.004
  C     -237.577     -91.825     330.535
  O     -237.393     -91.306     331.841
  C     -236.801     -91.024     329.501
  O     -235.545     -90.598     330.067
  C     -236.550     -92.053     328.386
  N     -238.136     -89.401     324.285
  C     -237.292     -89.080     325.288
  N     -236.959     -89.811     326.374
  C     -237.589     -90.997     326.363
  C     -238.481     -91.461     325.406
  C     -238.746     -90.606     324.324
  N     -239.611     -90.939     323.300
  N     -238.933     -92.725     325.729
  C     -238.280     -93.037     326.829
  N     -237.482     -92.012     327.272
  O     -240.102     -96.066     332.083
  O     -241.498     -94.876     330.226
  H     -235.005     -90.259     329.331
  H     -241.475     -94.699     329.268
  H     -236.823     -88.102     325.211
  H     -238.331     -93.999     327.330
  H     -235.549     -91.947     327.955
  H     -237.327     -90.121     329.185
  H     -238.634     -91.859     330.241
  H     -235.952     -93.206     330.938
  H     -237.353     -95.298     330.528
  H     -239.888     -90.199     322.675
  H     -240.159     -91.781     323.401
  H     -237.726     -94.391     332.010
  P     -238.643     -90.843     332.732
  C     -237.684     -91.995     334.823
  O     -238.074     -90.760     334.231
  O     -239.872     -91.660     332.547
  O     -238.854     -89.305     332.348
  H     -239.740     -89.008     332.628
  H     -237.324     -91.817     335.815
  H     -236.909     -92.442     334.237
  H     -238.527     -92.653     334.862

 6  7  8  9  10  11  12  13  14  15  25  28  32  33  34  35 0
 6-311+G(2d,p)
 ****
 36  39  40 0
 6-311+G(2d,p)
 ****
 1  2  3  4  5  16  17  18  19  20  21  22  23  24 0
 3-21G
 ****
 26  27  29  30  31  37  38  41  42  43  44  45  46  47 0
 3-21G
 ****
 48 0
 3-21G
 ****


