%nproc=1
%NoSave
%Mem=1900MB
#P OB98/GEN NMR

erre ene a

0 1
  C      654.058      -5.673     -64.616
  O      652.782      -6.276     -64.755
  P      652.402      -6.846     -66.211
  C      651.679      -9.036     -64.996
  O      651.381      -8.054     -65.972
  C      650.438      -9.904     -64.749
  O      649.834     -10.273     -66.002
  C      650.726     -11.213     -64.012
  O      650.817     -10.989     -62.623
  C      649.537     -12.065     -64.432
  O      648.380     -11.754     -63.636
  C      649.328     -11.636     -65.893
  N      648.924     -15.869     -68.633
  C      648.112     -15.380     -67.613
  N      647.016     -16.112     -67.323
  N      648.365     -14.276     -66.953
  C      649.495     -13.662     -67.347
  C      650.391     -14.054     -68.328
  C      650.077     -15.242     -69.089
  O      650.700     -15.659     -70.055
  N      651.440     -13.184     -68.419
  C      651.172     -12.250     -67.522
  N      649.997     -12.489     -66.857
  O      653.749      -7.562     -66.683
  O      651.925      -5.820     -67.193
  H      648.498     -12.101     -62.732
  H      654.262      -6.977     -67.284
  H      648.677     -16.708     -69.120
  H      651.782     -11.386     -67.329
  H      648.267     -11.612     -66.165
  H      649.725     -13.135     -64.294
  H      646.768     -16.979     -67.777
  H      651.655     -11.668     -64.391
  H      646.417     -15.776     -66.581
  H      649.710      -9.308     -64.184
  H      651.958      -8.542     -64.062
  H      652.514      -9.647     -65.337
  P      652.191     -11.378     -61.890
  C      651.709      -9.664     -60.009
  O      652.038     -10.997     -60.342
  O      653.237     -10.304     -62.462
  O      652.660     -12.772     -62.162
  H      654.110     -10.727     -62.571
  H      651.148      -9.666     -59.071
  H      651.106      -9.183     -60.789
  H      652.627      -9.088     -59.871
  H      654.186      -5.338     -63.608
  H      654.132      -4.838     -65.281
  H      654.818      -6.388     -64.854

 3  4  5  6  7  8  9  10  11  12  23  26  30  31 0
 6-311+G(2d,p)
 ****
 33  35  36  37  38 0
 6-311+G(2d,p)
 ****
 1  2  13  14  15  16  17  18  19  20  21  22  24  25 0
 3-21G
 ****
 27  28  29  32  34  39  40  41  42  43  44  45  46  47  48  49 0
 3-21G
 ****


