%nproc=1
%NoSave
%Mem=1900MB
#P OB98/GEN NMR

erre ene a

0 1
  C      -17.771      -6.603    -165.158
  O      -16.757      -7.290    -165.866
  H      -18.525      -6.258    -165.869
  H      -17.348      -5.736    -164.643
  H      -18.245      -7.272    -164.434
  P      -15.519      -7.825    -164.995
  C      -14.041      -5.824    -165.723
  O      -14.626      -6.538    -164.644
  C      -13.197      -4.663    -165.200
  O      -14.030      -3.667    -164.572
  C      -12.141      -5.066    -164.174
  O      -10.969      -5.541    -164.815
  C      -11.921      -3.747    -163.445
  O      -11.045      -2.879    -164.198
  C      -13.342      -3.169    -163.391
  N      -14.792      -1.542    -158.834
  C      -13.952      -0.958    -159.764
  N      -13.392       0.224    -159.421
  N      -13.674      -1.489    -160.925
  C      -14.258      -2.697    -161.113
  C      -15.104      -3.380    -160.270
  C      -15.447      -2.755    -159.010
  O      -16.246      -3.182    -158.180
  N      -15.503      -4.571    -160.824
  C      -14.872      -4.620    -161.982
  N      -14.099      -3.510    -162.200
  O      -14.623      -8.614    -166.066
  O      -15.876      -8.703    -163.843
  H      -10.201      -3.333    -164.352
  H      -14.246      -9.405    -165.637
  H      -14.994      -1.072    -157.968
  H      -14.947      -5.431    -162.698
  H      -13.339      -2.075    -163.455
  H      -11.443      -3.900    -162.476
  H      -13.333       0.528    -158.458
  H      -12.540      -5.806    -163.471
  H      -12.722       0.612    -160.072
  H      -12.725      -4.184    -166.070
  H      -14.840      -5.430    -166.362
  H      -13.414      -6.502    -166.309
  P      -10.167      -6.748    -164.126
  C       -8.900      -4.957    -162.734
  O       -9.566      -6.214    -162.734
  O       -8.876      -6.900    -165.063
  O      -10.923      -8.033    -164.045
  H       -8.968      -7.694    -165.625
  H       -8.557      -4.735    -161.745
  H       -9.578      -4.194    -163.056
  H       -8.065      -4.996    -163.401

 6  7  8  9  10  11  12  13  14  15  26  29  33  34 0
 6-311+G(2d,p)
 ****
 36  38  39  40  41 0
 6-311+G(2d,p)
 ****
 1  2  3  4  5  16  17  18  19  20  21  22  23  24  25 0
 3-21G
 ****
 27  28  30  31  32  35  37  42  43  44  45  46  47 0
 3-21G
 ****
 48  49 0
 3-21G
 ****


