%nproc=1
%NoSave
%Mem=1900MB
#P OB98/GEN NMR

erre ene a

0 1
  C     -119.533     262.462    -398.038
  O     -118.931     263.698    -398.368
  H     -119.001     261.650    -398.533
  H     -119.473     262.325    -396.951
  H     -120.588     262.457    -398.331
  P     -119.073     264.188    -399.892
  C     -118.015     263.432    -402.151
  O     -118.051     263.275    -400.735
  C     -116.726     262.845    -402.727
  O     -115.591     263.514    -402.086
  C     -116.570     261.335    -402.486
  O     -115.978     260.748    -403.646
  C     -115.616     261.255    -401.313
  O     -114.907     260.021    -401.280
  C     -114.737     262.474    -401.544
  N     -111.168     261.397    -398.053
  C     -111.506     260.802    -399.218
  N     -112.464     261.148    -400.099
  C     -113.068     262.273    -399.688
  C     -112.852     262.995    -398.532
  C     -111.851     262.507    -397.673
  N     -111.528     263.085    -396.463
  N     -113.712     264.082    -398.452
  C     -114.447     264.010    -399.543
  N     -114.102     262.941    -400.323
  O     -118.355     265.622    -399.859
  O     -120.468     264.265    -400.421
  H     -114.224     260.064    -400.579
  H     -118.973     266.284    -399.496
  H     -110.925     259.919    -399.476
  H     -115.239     264.703    -399.803
  H     -113.935     262.289    -402.278
  H     -116.175     261.356    -400.368
  H     -117.530     260.848    -402.282
  H     -116.675     263.088    -403.792
  H     -118.083     264.502    -402.401
  H     -110.826     262.635    -395.893
  H     -112.061     263.874    -396.138
  H     -118.882     262.908    -402.584
  P     -116.596     259.343    -404.150
  C     -115.855     256.883    -404.255
  O     -115.584     258.167    -403.746
  O     -116.464     259.437    -405.751
  O     -118.017     259.152    -403.731
  H     -117.315     259.220    -406.170
  H     -115.108     256.198    -403.911
  H     -115.845     256.914    -405.325
  H     -116.818     256.561    -403.916

 6  7  8  9  10  11  12  13  14  15  25  28  32  33  34  35 0
 6-311+G(2d,p)
 ****
 36  39  40 0
 6-311+G(2d,p)
 ****
 1  2  3  4  5  16  17  18  19  20  21  22  23  24 0
 3-21G
 ****
 26  27  29  30  31  37  38  41  42  43  44  45  46  47 0
 3-21G
 ****
 48 0
 3-21G
 ****


