%nproc=1
%NoSave
%Mem=1900MB
#P OB98/GEN NMR

erre ene a

0 1
  C     -273.603    -808.621      13.139
  O     -273.553    -807.217      12.983
  H     -272.899    -809.078      12.440
  H     -274.615    -808.994      12.915
  H     -273.323    -808.908      14.156
  P     -274.505    -806.359      13.940
  C     -272.233    -805.519      14.918
  O     -273.597    -805.886      15.165
  C     -271.714    -804.591      16.016
  O     -272.390    -803.301      15.889
  C     -271.981    -805.091      17.443
  O     -270.942    -804.584      18.301
  C     -273.301    -804.390      17.782
  O     -273.581    -804.463      19.155
  C     -273.030    -803.023      17.165
  N     -277.534    -801.679      19.169
  C     -276.518    -802.425      19.652
  N     -275.349    -802.738      19.072
  C     -275.250    -802.148      17.848
  C     -276.182    -801.331      17.243
  C     -277.380    -801.105      17.950
  N     -278.406    -800.336      17.453
  N     -275.736    -800.919      16.003
  C     -274.548    -801.473      15.877
  N     -274.220    -802.236      16.966
  O     -275.464    -807.471      14.599
  O     -275.275    -805.272      13.275
  H     -274.451    -804.047      19.346
  H     -276.293    -807.521      14.091
  H     -276.675    -802.854      20.643
  H     -273.891    -801.359      15.019
  H     -272.319    -802.442      17.769
  H     -274.141    -804.898      17.256
  H     -272.025    -806.190      17.525
  H     -270.651    -804.392      15.851
  H     -272.179    -805.026      13.952
  H     -271.626    -806.444      14.889
  H     -279.238    -800.236      18.019
  H     -278.326    -799.931      16.541
  P     -270.410    -805.472      19.518
  C     -267.815    -805.370      19.166
  O     -269.005    -806.140      19.081
  O     -271.391    -806.744      19.452
  O     -270.442    -804.843      20.870
  H     -271.467    -807.139      20.357
  H     -266.984    -805.961      18.841
  H     -267.660    -805.064      20.179
  H     -267.904    -804.506      18.542

 6  7  8  9  10  11  12  13  14  15  25  28  32  33  34  35 0
 6-311+G(2d,p)
 ****
 36  37  40 0
 6-311+G(2d,p)
 ****
 1  2  3  4  5  16  17  18  19  20  21  22  23  24 0
 3-21G
 ****
 26  27  29  30  31  38  39 41  42  43  44  45  46  47  48 0
 3-21G
 ****


