%nproc=1
%NoSave
%Mem=1900MB
#P OB98/GEN NMR

erre ene a

0 1
  C     -486.013     102.047     404.690
  O     -485.884     102.946     403.605
  H     -486.227     101.047     404.295
  H     -486.839     102.354     405.336
  H     -485.084     102.005     405.267
  P     -485.384     104.434     403.957
  C     -484.190     104.846     401.657
  O     -485.241     105.183     402.548
  C     -484.390     105.538     400.306
  O     -485.388     104.802     399.551
  C     -484.859     106.990     400.419
  O     -484.237     107.749     399.377
  C     -486.356     106.900     400.172
  O     -486.891     108.136     399.705
  C     -486.437     105.730     399.186
  N     -487.748     105.078     399.194
  C     -488.744     105.665     398.406
  O     -488.507     106.685     397.760
  N     -489.994     105.102     398.400
  C     -490.253     104.085     399.169
  N     -491.518     103.588     399.133
  C     -489.245     103.469     400.062
  C     -488.024     104.002     400.010
  O     -483.869     104.169     404.408
  O     -486.217     105.136     404.974
  H     -487.805     107.972     399.375
  H     -483.406     103.522     403.850
  H     -489.514     102.635     400.696
  H     -487.224     103.609     400.624
  H     -486.229     106.074     398.161
  H     -486.872     106.641     401.107
  H     -484.638     107.444     401.386
  H     -483.454     105.469     399.736
  H     -492.184     104.053     398.527
  H     -484.151     103.761     401.510
  H     -491.845     102.837     399.723
  H     -483.246     105.163     402.110
  P     -482.921     108.598     399.712
  C     -481.440     107.957     397.698
  O     -482.181     108.986     398.342
  O     -482.029     108.030     400.766
  O     -483.519     110.016     400.186
  H     -482.968     110.343     400.923
  H     -480.999     108.342     396.802
  H     -482.094     107.146     397.453
  H     -480.670     107.608     398.354

 6  7  8  9  10  11  12  13  14  15  16  26  30  31  32  33  35 0
 6-311+G(2d,p)
 ****
 37  38 0
 6-311+G(2d,p)
 ****
 1  2  3  4  5  17  18  19  20  21  22  23  24  25 0
 3-21G
 ****
 27  28  29  34  36  39  40  41  42  43  44  45  46 0
 3-21G
 ****


