%nproc=1
%NoSave
%Mem=1900MB
#P OB98/GEN NMR

erre ene a

0 1
  C     -369.292      87.232      90.744
  O     -370.668      87.616      90.879
  P     -371.292      88.201      92.235
  C     -372.055      85.837      92.970
  O     -371.337      87.015      93.318
  C     -371.652      84.661      93.868
  O     -371.965      84.960      95.249
  C     -372.373      83.355      93.593
  O     -371.922      82.727      92.404
  C     -372.069      82.573      94.872
  O     -370.793      81.925      94.797
  C     -372.030      83.690      95.936
  N     -373.165      83.642      96.846
  C     -373.309      82.478      97.611
  O     -372.548      81.524      97.438
  N     -374.323      82.424      98.538
  C     -375.176      83.398      98.615
  N     -376.146      83.294      99.563
  C     -375.139      84.579      97.732
  C     -374.116      84.635      96.882
  O     -372.606      88.892      92.052
  O     -370.188      89.211      92.811
  H     -370.620      89.889      93.363
  H     -370.598      81.577      95.689
  H     -375.900      85.349      97.804
  H     -374.006      85.480      96.206
  H     -371.105      83.624      96.514
  H     -372.816      81.798      95.065
  H     -373.454      83.542      93.529
  H     -370.560      84.529      93.780
  H     -376.139      82.476     100.159
  H     -371.814      85.584      91.927
  H     -376.845      84.006      99.725
  H     -373.128      86.034      93.042
  P     -372.740      83.046      91.062
  C     -374.109      80.839      91.081
  O     -374.130      82.255      91.140
  O     -371.915      82.263      89.929
  O     -372.861      84.496      90.738
  H     -371.893      82.799      89.114
  H     -374.988      80.454      91.613
  H     -373.207      80.429      91.542
  H     -374.162      80.518      90.035
  H     -369.117      86.874      89.751
  H     -369.067      86.458      91.447
  H     -368.665      88.078      90.933

 3  4  5  6  7  8  9  10  11  12  13  24  27  28  29  30  32 0
 6-311+G(2d,p)
 ****
 34  35 0
 6-311+G(2d,p)
 ****
 1  2  14  15  16  17  18  19  20  21  22  23  25  26 0
 3-21G
 ****
 31  33  36  37  38  39  40  41  42  43  44  45  46 0
 3-21G
 ****


