%nproc=1
%NoSave
%Mem=1900MB
#P OB98/GEN NMR

erre ene a

0 1
  C      -72.504     583.529    -278.812
  O      -71.436     584.400    -278.485
  P      -70.846     585.320    -279.655
  C      -71.702     587.542    -278.594
  O      -70.595     586.777    -279.038
  C      -71.212     588.834    -277.939
  O      -70.737     588.576    -276.606
  C      -70.051     589.492    -278.676
  O      -70.495     590.201    -279.817
  C      -69.465     590.383    -277.592
  O      -70.178     591.624    -277.503
  C      -69.688     589.533    -276.323
  N      -68.469     588.880    -275.855
  C      -67.595     589.680    -275.120
  O      -67.815     590.874    -274.888
  N      -66.443     589.081    -274.703
  C      -66.058     587.801    -274.980
  O      -64.987     587.329    -274.614
  C      -67.006     587.009    -275.782
  C      -68.143     587.583    -276.188
  O      -72.087     585.538    -280.641
  O      -69.667     584.741    -280.368
  H      -69.896     592.050    -276.669
  H      -71.778     585.571    -281.567
  H      -65.810     589.629    -274.148
  H      -66.732     585.991    -276.024
  H      -68.849     587.022    -276.793
  H      -70.075     590.169    -275.511
  H      -68.416     590.631    -277.786
  H      -69.307     588.727    -278.950
  H      -72.066     589.531    -277.873
  H      -72.284     586.960    -277.876
  H      -72.348     587.762    -279.451
  P      -69.610     590.062    -281.151
  C      -71.596     588.981    -282.443
  O      -70.667     590.032    -282.354
  O      -69.087     588.557    -281.011
  O      -68.528     591.087    -281.245
  H      -69.735     587.988    -280.562
  H      -71.930     588.644    -281.458
  H      -71.151     588.139    -282.977
  H      -72.473     589.324    -283.010
  H      -72.795     582.979    -277.941
  H      -72.188     582.848    -279.574
  H      -73.335     584.102    -279.167

 3  4  5  6  7  8  9  10  11  12  13  23  28  29  30  31  32 0
 6-311+G(2d,p)
 ****
 33  34 0
 6-311+G(2d,p)
 ****
 1  2  14  15  16  17  18  19  20  21  22  24  25  26 0
 3-21G
 ****
 27  35  36  37  38  39  40  41  42  43  44  45 0
 3-21G
 ****


