%nproc=1
%NoSave
%Mem=1900MB
#P OB98/GEN NMR

erre ene a

0 1
  C     -157.881     145.216      -3.557
  O     -157.194     144.061      -3.096
  P     -157.516     142.676      -3.849
  C     -159.142     141.955      -1.928
  O     -158.955     142.200      -3.319
  C     -160.638     141.932      -1.611
  O     -161.255     143.174      -2.009
  C     -161.409     140.824      -2.321
  O     -161.267     139.599      -1.625
  C     -162.831     141.388      -2.301
  O     -163.458     141.153      -1.026
  C     -162.586     142.884      -2.530
  N     -165.746     144.304      -6.223
  C     -166.015     143.789      -4.964
  N     -167.322     143.686      -4.626
  N     -165.093     143.424      -4.114
  C     -163.835     143.572      -4.585
  C     -163.440     144.050      -5.819
  C     -164.466     144.505      -6.725
  O     -164.276     145.059      -7.806
  N     -162.077     144.035      -5.946
  C     -161.649     143.576      -4.787
  N     -162.671     143.298      -3.925
  O     -156.491     141.655      -3.168
  O     -157.390     142.717      -5.336
  H     -164.327     141.598      -1.008
  H     -155.705     141.525      -3.734
  H     -166.496     144.587      -6.824
  H     -160.607     143.446      -4.523
  H     -163.292     143.507      -1.969
  H     -163.469     140.914      -3.053
  H     -168.083     143.928      -5.235
  H     -161.067     140.724      -3.359
  H     -167.536     143.310      -3.713
  H     -160.745     141.841      -0.519
  H     -158.666     142.755      -1.358
  H     -158.678     141.005      -1.663
  P     -161.181     138.260      -2.504
  C     -163.687     137.574      -2.372
  O     -162.620     138.044      -3.174
  O     -161.092     137.104      -1.396
  O     -160.020     138.203      -3.431
  H     -160.517     136.385      -1.707
  H     -164.626     137.962      -2.774
  H     -163.582     137.901      -1.331
  H     -163.707     136.481      -2.405
  H     -157.581     146.064      -2.978
  H     -158.936     145.069      -3.453
  H     -157.644     145.385      -4.587

 3  4  5  6  7  8  9  10  11  12  23  26  30  31 0
 6-311+G(2d,p)
 ****
 33  35  36  37  38 0
 6-311+G(2d,p)
 ****
 1  2  13  14  15  16  17  18  19  20  21  22  24  25 0
 3-21G
 ****
 27  28  29  32  34  39  40  41  42  43  44  45  46  47  48  49 0
 3-21G
 ****


