%nproc=1
%NoSave
%Mem=1900MB
#P OB98/GEN NMR

erre ene a

0 1
  C      450.778    -251.019    1116.192
  O      450.640    -249.896    1115.337
  H      451.659    -250.894    1116.832
  H      449.886    -251.102    1116.819
  H      450.879    -251.929    1115.591
  P      451.854    -249.569    1114.357
  C      450.808    -250.520    1112.182
  O      451.809    -250.652    1113.172
  C      451.395    -250.743    1110.790
  O      451.867    -252.117    1110.728
  C      450.411    -250.518    1109.625
  O      450.924    -249.528    1108.734
  C      450.369    -251.860    1108.901
  O      450.349    -251.720    1107.479
  C      451.635    -252.565    1109.378
  N      450.663    -256.486    1106.289
  C      451.122    -255.259    1106.022
  N      451.462    -254.282    1106.900
  C      451.311    -254.713    1108.170
  C      450.886    -255.970    1108.585
  C      450.522    -256.870    1107.576
  N      450.008    -258.126    1107.841
  N      450.859    -256.041    1109.975
  C      451.216    -254.846    1110.381
  N      451.494    -254.010    1109.322
  O      453.146    -249.996    1115.203
  O      451.945    -248.150    1113.903
  H      450.746    -252.538    1107.113
  H      453.817    -249.282    1115.172
  H      451.222    -254.994    1104.981
  H      451.262    -254.512    1111.412
  H      452.507    -252.277    1108.776
  H      449.479    -252.408    1109.223
  H      449.407    -250.225    1109.972
  H      452.278    -250.105    1110.678
  H      450.394    -249.500    1112.226
  H      449.679    -258.676    1107.061
  H      449.801    -258.376    1108.797
  H      449.996    -251.227    1112.387
  P      450.394    -248.021    1108.940
  C      452.228    -247.345    1110.661
  O      450.843    -247.564    1110.403
  O      448.809    -248.219    1109.087
  O      450.743    -247.094    1107.836
  H      448.352    -247.422    1108.794
  H      452.358    -247.046    1111.680
  H      452.594    -246.575    1110.014
  H      452.771    -248.249    1110.482

 6  7  8  9  10  11  12  13  14  15  25  28  32  33  34  35 0
 6-311+G(2d,p)
 ****
 36  39  40 0
 6-311+G(2d,p)
 ****
 1  2  3  4  5  16  17  18  19  20  21  22  23  24 0
 3-21G
 ****
 26  27  29  30  31  37  38  41  42  43  44  45  46  47  48 0
 3-21G
 ****


