%nproc=1
%NoSave
%Mem=1900MB
#P OB98/GEN NMR

erre ene a

0 1
  C     -291.927    -311.278     340.343
  O     -293.020    -310.621     340.992
  P     -294.458    -311.314     340.881
  C     -295.186    -310.103     338.683
  O     -295.405    -310.287     340.081
  C     -296.148    -309.045     338.140
  O     -297.493    -309.565     338.098
  C     -296.233    -307.774     338.985
  O     -295.091    -306.944     338.780
  C     -297.546    -307.184     338.458
  O     -297.318    -306.531     337.200
  C     -298.400    -308.450     338.259
  N     -303.101    -307.660     340.191
  C     -302.496    -307.228     339.039
  N     -301.230    -307.467     338.607
  C     -300.570    -308.241     339.484
  C     -301.037    -308.740     340.700
  C     -302.366    -308.426     341.045
  N     -302.958    -308.878     342.202
  N     -300.057    -309.472     341.336
  C     -299.020    -309.431     340.522
  N     -299.277    -308.717     339.380
  O     -295.014    -311.242     342.375
  O     -294.444    -312.709     340.350
  H     -296.803    -305.707     337.379
  H     -295.564    -312.027     342.580
  H     -303.121    -306.620     338.390
  H     -298.057    -309.909     340.708
  H     -299.040    -308.401     337.365
  H     -297.976    -306.452     339.144
  H     -296.330    -308.012     340.046
  H     -295.829    -308.789     337.105
  H     -295.364    -311.039     338.161
  H     -303.852    -308.482     342.441
  H     -302.372    -309.315     342.901
  H     -294.136    -309.810     338.520
  P     -294.263    -306.515     340.090
  C     -296.349    -305.380     341.075
  O     -295.014    -305.202     340.619
  O     -292.918    -305.920     339.450
  O     -294.055    -307.611     341.096
  H     -293.132    -305.295     338.745
  H     -296.735    -304.432     341.434
  H     -296.393    -306.120     341.875
  H     -296.995    -305.718     340.226
  H     -291.031    -310.713     340.494
  H     -292.128    -311.354     339.295
  H     -291.805    -312.258     340.755

 3  4  5  6  7  8  9  10  11  12  22  25  29  30  31  32 0
 6-311+G(2d,p)
 ****
 33  36  37 0
 6-311+G(2d,p)
 ****
 1  2  13  14  15  16  17  18  19  20  21  23  24  26 0
 3-21G
 ****
 27  28  34  35  38  39  40  41  42  43  44  45  46  47  48 0
 3-21G
 ****


