%nproc=1
%NoSave
%Mem=1900MB
#P OB98/GEN NMR

erre ene a

0 1
  C      -18.685      11.771       0.400
  O      -20.065      11.714       0.700
  P      -21.113      11.095      -0.337
  C      -21.534       8.839      -1.476
  O      -20.615       9.623      -0.728
  C      -20.831       8.075      -2.597
  O      -20.382       9.012      -3.610
  C      -19.614       7.263      -2.135
  O      -19.608       6.044      -2.885
  C      -18.445       8.141      -2.536
  O      -17.236       7.407      -2.668
  C      -18.981       8.756      -3.833
  N      -18.272       9.969      -4.209
  C      -17.034       9.809      -4.833
  O      -16.527       8.691      -4.925
  N      -16.398      10.924      -5.320
  C      -16.865      12.101      -5.038
  N      -16.244      13.174      -5.597
  C      -18.038      12.310      -4.166
  C      -18.712      11.215      -3.827
  O      -21.440      11.967      -1.503
  O      -22.419      10.810       0.546
  H      -23.190      11.234       0.122
  H      -17.409       6.606      -3.206
  H      -18.314      13.306      -3.856
  H      -19.603      11.266      -3.212
  H      -18.912       8.036      -4.658
  H      -18.291       8.918      -1.779
  H      -19.640       7.031      -1.067
  H      -21.566       7.413      -3.071
  H      -15.469      12.990      -6.221
  H      -22.276       9.510      -1.915
  H      -16.708      14.075      -5.698
  H      -22.062       8.148      -0.810
  P      -18.801       4.788      -2.291
  C      -19.220       3.073      -0.392
  O      -19.514       4.345      -0.927
  O      -17.460       5.493      -1.754
  O      -18.449       3.704      -3.257
  H      -16.741       4.835      -1.738
  H      -19.841       2.915       0.494
  H      -18.170       3.018      -0.094
  H      -19.441       2.287      -1.119
  H      -18.160      12.217       1.219
  H      -18.536      12.358      -0.482
  H      -18.314      10.781       0.236

 3  4  5  6  7  8  9  10  11  12  13  24  27  28  29  30  32 0
 6-311+G(2d,p)
 ****
 34  35 0
 6-311+G(2d,p)
 ****
 1  2  14  15  16  17  18  19  20  21  22  23  25  26 0
 3-21G
 ****
 31  33  36  37  38  39  40  41  42  43  44  45  46 0
 3-21G
 ****


