%nproc=1
%NoSave
%Mem=1900MB
#P OB98/GEN NMR

erre ene a

0 1
  C     -143.906    -137.281    -122.599
  O     -143.232    -138.511    -122.419
  H     -144.483    -137.331    -123.526
  H     -143.179    -136.469    -122.682
  H     -144.586    -137.092    -121.767
  P     -142.391    -138.683    -121.063
  C     -141.371    -140.693    -119.780
  O     -141.987    -140.237    -120.975
  C     -141.424    -142.217    -119.692
  O     -142.740    -142.615    -119.202
  C     -141.196    -142.936    -121.032
  O     -140.487    -144.152    -120.766
  C     -142.607    -143.296    -121.467
  O     -142.634    -144.370    -122.403
  C     -143.233    -143.620    -120.111
  N     -147.255    -146.599    -120.613
  C     -145.912    -146.910    -120.543
  N     -145.585    -148.218    -120.618
  N     -144.968    -146.017    -120.411
  C     -145.440    -144.750    -120.314
  C     -146.740    -144.310    -120.373
  C     -147.774    -145.309    -120.548
  O     -148.979    -145.093    -120.637
  N     -146.805    -142.943    -120.266
  C     -145.547    -142.560    -120.141
  N     -144.683    -143.621    -120.165
  O     -143.512    -138.521    -119.934
  O     -141.267    -137.719    -120.880
  H     -142.262    -145.162    -121.964
  H     -143.556    -137.594    -119.631
  H     -147.941    -147.325    -120.729
  H     -145.211    -141.538    -120.034
  H     -142.929    -144.603    -119.735
  H     -143.095    -142.427    -121.927
  H     -146.259    -148.965    -120.674
  H     -140.653    -142.343    -121.774
  H     -144.608    -148.470    -120.526
  H     -140.696    -142.547    -118.942
  H     -141.903    -140.265    -118.922
  H     -140.330    -140.353    -119.758
  P     -138.898    -144.071    -120.580
  C     -137.188    -145.452    -119.189
  O     -138.403    -145.447    -119.924
  O     -138.733    -143.027    -119.377
  O     -138.157    -143.631    -121.799
  H     -137.874    -142.569    -119.451
  H     -136.999    -146.438    -118.819
  H     -137.266    -144.771    -118.367
  H     -136.384    -145.150    -119.827

 6  7  8  9  10  11  12  13  14  15  26  29  33  34 0
 6-311+G(2d,p)
 ****
 36  38  39  40  41 0
 6-311+G(2d,p)
 ****
 1  2  3  4  5  16  17  18  19  20  21  22  23  24  25 0
 3-21G
 ****
 27  28  30  31  32  35  37  42  43  44  45  46  47 0
 3-21G
 ****
 48  49 0
 3-21G
 ****


