%nproc=1
%NoSave
%Mem=1900MB
#P OB98/GEN NMR

erre ene a

0 1
  C     1228.430    2258.581     -58.477
  O     1229.470    2258.055     -57.663
  H     1227.485    2258.507     -57.914
  H     1228.334    2258.001     -59.378
  H     1228.622    2259.624     -58.701
  P     1230.950    2257.967     -58.268
  C     1231.868    2259.388     -56.335
  O     1231.737    2259.263     -57.743
  C     1232.396    2260.805     -55.961
  O     1231.658    2261.752     -56.833
  C     1232.118    2261.182     -54.509
  O     1233.326    2261.627     -53.834
  C     1230.958    2262.136     -54.591
  O     1230.848    2263.059     -53.525
  C     1231.108    2262.796     -55.953
  N     1229.860    2263.304     -56.533
  C     1229.322    2264.418     -55.925
  O     1229.774    2265.019     -54.947
  N     1228.138    2264.869     -56.452
  C     1227.489    2264.344     -57.523
  O     1226.431    2264.785     -57.997
  C     1228.094    2263.130     -58.133
  C     1229.244    2262.666     -57.615
  O     1231.022    2257.736     -59.743
  O     1231.627    2256.770     -57.469
  H     1231.694    2263.546     -53.476
  H     1231.663    2255.964     -58.023
  H     1227.711    2265.692     -56.020
  H     1227.619    2262.666     -58.960
  H     1229.752    2261.828     -58.038
  H     1231.812    2263.607     -55.912
  H     1230.022    2261.539     -54.569
  H     1231.824    2260.292     -53.936
  H     1233.458    2260.869     -56.226
  H     1232.591    2258.618     -55.996
  H     1230.919    2259.214     -55.844
  P     1234.257    2260.700     -52.924
  C     1236.292    2260.801     -54.590
  O     1235.325    2260.009     -53.887
  O     1233.525    2259.836     -51.986
  O     1235.119    2261.768     -52.083
  H     1235.280    2261.355     -51.235
  H     1236.915    2260.162     -55.180
  H     1236.895    2261.336     -53.886
  H     1235.788    2261.496     -55.228

 6  7  8  9  10  11  12  13  14  15  16  26  31  32  33  34  35 0
 6-311+G(2d,p)
 ****
 36  37 0
 6-311+G(2d,p)
 ****
 1  2  3  4  5  17  18  19  20  21  22  23  24  25 0
 3-21G
 ****
 27  28  29  30  38  39  40  41  42  43  44  45 0
 3-21G
 ****


