%nproc=1
%NoSave
%Mem=1900MB
#P OB98/GEN NMR

erre ene a

0 1
  C     -897.860    -225.175    -888.538
  O     -897.500    -224.443    -887.378
  H     -897.030    -225.806    -888.826
  H     -898.080    -224.488    -889.359
  H     -898.730    -225.809    -888.329
  P     -898.660    -223.582    -886.674
  C     -898.240    -224.008    -884.122
  O     -898.970    -224.323    -885.289
  C     -897.090    -224.983    -883.903
  O     -896.090    -224.761    -884.941
  C     -896.390    -224.849    -882.548
  O     -895.980    -226.158    -882.116
  C     -895.160    -224.021    -882.866
  O     -894.120    -224.212    -881.901
  C     -894.820    -224.511    -884.288
  N     -894.000    -223.553    -885.025
  C     -892.880    -224.064    -885.690
  O     -892.610    -225.267    -885.631
  N     -892.070    -223.196    -886.385
  C     -892.310    -221.922    -886.349
  N     -891.460    -221.109    -887.038
  C     -893.470    -221.341    -885.622
  C     -894.260    -222.197    -885.004
  O     -899.930    -223.936    -887.591
  O     -898.370    -222.121    -886.569
  H     -893.380    -223.597    -882.105
  H     -900.000    -224.885    -887.804
  H     -893.620    -220.264    -885.624
  H     -895.130    -221.856    -884.450
  H     -894.290    -225.469    -884.251
  H     -895.410    -222.958    -882.881
  H     -897.030    -224.397    -881.795
  H     -897.450    -226.014    -884.064
  H     -890.670    -221.559    -887.510
  H     -898.890    -224.031    -883.235
  H     -891.520    -220.112    -887.036
  H     -897.860    -222.979    -884.225
  P     -896.940    -226.990    -881.147
  C     -897.300    -229.170    -882.509
  O     -897.880    -227.970    -882.020
  O     -897.650    -226.212    -880.091
  O     -895.930    -228.038    -880.462
  H     -896.160    -228.113    -879.523
  H     -898.031    -229.718    -883.066
  H     -896.960    -229.763    -881.686
  H     -896.472    -228.933    -883.144

 6  7  8  9  10  11  12  13  14  15  16  26  30  31  32  33  35 0
 6-311+G(2d,p)
 ****
 37  38 0
 6-311+G(2d,p)
 ****
 1  2  3  4  5  17  18  19  20  21  22  23  24  25 0
 3-21G
 ****
 27  28  29  34  36  39  40  41  42  43  44  45  46 0
 3-21G
 ****


