%nproc=1
%NoSave
%Mem=1900MB
#P OB98/GEN NMR

erre ene a

0 1
  C     -252.176     484.479     -65.954
  O     -252.104     484.153     -67.335
  P     -251.378     482.816     -67.849
  C     -253.349     481.891     -69.239
  O     -252.061     482.474     -69.259
  C     -253.938     481.846     -70.654
  O     -254.298     483.199     -71.049
  C     -252.981     481.297     -71.719
  O     -253.770     480.574     -72.671
  C     -252.407     482.556     -72.342
  O     -251.887     482.333     -73.642
  C     -253.623     483.482     -72.291
  N     -253.260     484.896     -72.375
  C     -253.629     485.585     -73.529
  O     -254.220     485.025     -74.447
  N     -253.324     486.922     -73.618
  C     -252.627     487.491     -72.679
  N     -252.392     488.828     -72.783
  C     -252.123     486.765     -71.493
  C     -252.494     485.493     -71.400
  O     -251.372     481.693     -66.868
  O     -249.922     483.299     -68.295
  H     -252.617     482.048     -74.223
  H     -249.282     483.338     -67.542
  H     -251.529     487.276     -70.754
  H     -252.197     484.891     -70.555
  H     -254.327     483.233     -73.098
  H     -251.592     482.935     -71.716
  H     -252.223     480.629     -71.297
  H     -254.860     481.255     -70.627
  H     -252.898     489.323     -73.513
  H     -253.999     482.504     -68.608
  H     -252.167     489.384     -71.969
  H     -253.298     480.887     -68.806
  P     -253.595     478.977     -72.755
  C     -256.036     478.519     -73.503
  O     -254.664     478.417     -73.812
  O     -254.231     478.511     -71.354
  O     -252.194     478.466     -72.868
  H     -253.841     477.654     -71.099
  H     -256.613     478.099     -74.328
  H     -256.323     479.570     -73.382
  H     -256.267     477.961     -72.594
  H     -252.698     485.405     -65.833
  H     -251.187     484.573     -65.558
  H     -252.697     483.704     -65.431

 3  4  5  6  7  8  9  10  11  12  13  23  27  28  29  30  32 0
 6-311+G(2d,p)
 ****
 34  35 0
 6-311+G(2d,p)
 ****
 1  2  14  15  16  17  18  19  20  21  22  24  25  26 0
 3-21G
 ****
 31  33  36  37  38  39  40  41  42  43  44  45  46 0
 3-21G
 ****


