%nproc=1
%NoSave
%Mem=1900MB
#P OB98/GEN NMR

erre ene a

0 1
  C     -124.322     -63.012     369.355
  O     -123.202     -62.894     370.209
  P     -121.719     -62.821     369.606
  C     -121.544     -65.384     369.342
  O     -121.574     -64.121     368.674
  C     -120.587     -66.346     368.638
  O     -120.956     -66.506     367.255
  C     -119.136     -65.886     368.633
  O     -118.534     -66.106     369.890
  C     -118.567     -66.731     367.496
  O     -118.224     -68.049     367.953
  C     -119.750     -66.785     366.509
  N     -119.582     -65.868     365.387
  C     -118.792     -66.336     364.328
  O     -118.262     -67.447     364.392
  N     -118.588     -65.509     363.249
  C     -119.098     -64.322     363.238
  N     -118.850     -63.548     362.148
  C     -119.912     -63.779     364.350
  C     -120.109     -64.597     365.382
  O     -120.630     -62.627     370.606
  O     -121.822     -61.630     368.536
  H     -117.674     -68.445     367.246
  H     -121.856     -60.747     368.980
  H     -120.311     -62.777     364.300
  H     -120.694     -64.283     366.237
  H     -119.868     -67.799     366.106
  H     -117.656     -66.293     367.072
  H     -119.085     -64.824     368.356
  H     -120.670     -67.325     369.128
  H     -118.266     -63.947     361.426
  H     -122.552     -65.804     369.331
  H     -119.170     -62.595     362.054
  H     -121.246     -65.230     370.384
  P     -117.717     -64.931     370.606
  C     -115.803     -65.286     368.932
  O     -116.667     -64.349     369.537
  O     -117.148     -65.266     371.944
  O     -118.797     -63.751     370.733
  H     -118.732     -63.356     371.620
  H     -115.388     -64.843     368.020
  H     -116.338     -66.201     368.672
  H     -114.984     -65.520     369.614
  H     -125.216     -63.045     369.942
  H     -124.239     -63.911     368.780
  H     -124.359     -62.169     368.697

 3  4  5  6  7  8  9  10  11  12  13  23  27  28  29  30  32 0
 6-311+G(2d,p)
 ****
 34  35 0
 6-311+G(2d,p)
 ****
 1  2  14  15  16  17  18  19  20  21  22  24  25  26 0
 3-21G
 ****
 31  33  36  37  38  39  40  41  42  43  44  45  46 0
 3-21G
 ****


