%nproc=1
%NoSave
%Mem=1900MB
#P OB98/GEN NMR

erre ene a

0 1
  C      -22.868     -34.733     498.507
  O      -23.624     -33.839     497.696
  P      -22.830     -32.636     496.980
  C      -22.904     -30.268     498.057
  O      -22.446     -31.615     498.165
  C      -24.374     -30.166     498.446
  O      -24.570     -30.689     499.780
  C      -24.922     -28.744     498.483
  O      -25.296     -28.281     497.195
  C      -26.164     -28.939     499.349
  O      -27.234     -29.501     498.567
  C      -25.676     -29.956     500.385
  N      -27.014     -26.925     504.285
  C      -27.677     -27.289     503.157
  N      -27.239     -28.091     502.157
  C      -25.985     -28.506     502.390
  C      -25.179     -28.184     503.470
  C      -25.745     -27.359     504.464
  N      -25.086     -27.013     505.616
  N      -23.946     -28.786     503.360
  C      -24.003     -29.475     502.237
  N      -25.224     -29.346     501.621
  O      -23.984     -31.867     496.180
  O      -21.703     -33.056     496.094
  H      -28.035     -29.500     499.138
  H      -23.591     -31.363     495.443
  H      -28.679     -26.891     503.046
  H      -23.204     -30.090     501.844
  H      -26.446     -30.689     500.644
  H      -26.537     -27.994     499.766
  H      -24.227     -28.057     498.982
  H      -24.959     -30.787     497.754
  H      -22.794     -29.935     497.015
  H      -25.628     -26.577     506.362
  H      -24.225     -27.504     505.842
  H      -22.293     -29.631     498.696
  P      -25.125     -26.708     496.910
  C      -27.468     -25.566     496.821
  O      -26.379     -26.007     497.612
  O      -25.444     -26.586     495.345
  O      -23.770     -26.167     497.259
  H      -25.001     -25.800     494.973
  H      -28.328     -25.412     497.459
  H      -27.723     -26.309     496.054
  H      -27.207     -24.613     496.333
  H      -23.517     -35.478     498.918
  H      -22.403     -34.187     499.302
  H      -22.115     -35.205     497.911

 3  4  5  6  7  8  9  10  11  12  22  25  29  30  31  32 0
 6-311+G(2d,p)
 ****
 33  36  37 0
 6-311+G(2d,p)
 ****
 1  2  13  14  15  16  17  18  19  20  21  23  24  26 0
 3-21G
 ****
 27  28  34  35  38  39  40  41  42  43  44  45  46  47  48 0
 3-21G
 ****


