%nproc=1
%NoSave
%Mem=1900MB
#P OB98/GEN NMR

erre ene a

0 1
  C      188.954    -320.184    -477.181
  O      189.559    -321.335    -477.748
  P      188.862    -322.777    -477.635
  C      190.428    -323.688    -479.479
  O      189.975    -323.817    -478.137
  C      191.946    -323.532    -479.502
  O      192.546    -324.490    -478.607
  C      192.585    -323.776    -480.861
  O      192.392    -322.665    -481.726
  C      194.030    -324.048    -480.457
  O      194.717    -322.813    -480.198
  C      193.847    -324.832    -479.139
  N      193.984    -326.273    -479.316
  C      195.287    -326.774    -479.363
  O      196.258    -326.029    -479.252
  N      195.464    -328.129    -479.501
  C      194.435    -328.911    -479.609
  N      194.671    -330.252    -479.675
  C      193.046    -328.419    -479.619
  C      192.894    -327.104    -479.464
  O      187.547    -322.895    -478.326
  O      188.799    -323.070    -476.069
  H      195.598    -323.050    -479.849
  H      187.980    -322.726    -475.634
  H      192.218    -329.106    -479.723
  H      191.908    -326.663    -479.440
  H      194.577    -324.496    -478.396
  H      194.601    -324.595    -481.214
  H      192.162    -324.670    -481.330
  H      192.192    -322.523    -479.139
  H      195.619    -330.553    -479.489
  H      189.969    -322.797    -479.920
  H      193.943    -330.923    -479.471
  H      190.115    -324.567    -480.052
  P      191.883    -322.966    -483.215
  C      191.081    -320.502    -483.250
  O      191.763    -321.534    -483.935
  O      190.368    -323.434    -483.000
  O      192.689    -323.987    -483.949
  H      190.301    -324.405    -483.052
  H      191.290    -319.554    -483.752
  H      191.418    -320.433    -482.210
  H      190.002    -320.682    -483.278
  H      189.572    -319.330    -477.364
  H      188.841    -320.323    -476.126
  H      187.993    -320.031    -477.625

 3  4  5  6  7  8  9  10  11  12  13  23  27  28  29  30  32 0
 6-311+G(2d,p)
 ****
 34  35 0
 6-311+G(2d,p)
 ****
 1  2  14  15  16  17  18  19  20  21  22  24  25  26 0
 3-21G
 ****
 31  33  36  37  38  39  40  41  42  43  44  45  46 0
 3-21G
 ****


