%nproc=1
%NoSave
%Mem=1900MB
#P OB98/GEN NMR

erre ene a

0 1
  C      367.324     453.545    -350.048
  O      368.015     454.557    -349.341
  H      366.360     453.944    -350.378
  H      367.141     452.701    -349.380
  H      367.895     453.220    -350.923
  P      369.562     454.303    -349.030
  C      369.310     454.138    -346.459
  O      369.845     454.864    -347.545
  C      368.573     455.076    -345.498
  O      369.533     456.004    -344.921
  C      367.464     455.914    -346.167
  O      366.364     456.027    -345.273
  C      368.119     457.273    -346.365
  O      367.162     458.330    -346.427
  C      369.033     457.335    -345.151
  N      371.610     461.152    -343.077
  C      370.597     460.360    -342.553
  N      370.225     460.624    -341.282
  N      370.020     459.382    -343.214
  C      370.541     459.207    -344.453
  C      371.521     459.927    -345.096
  C      372.133     461.021    -344.358
  O      373.010     461.772    -344.784
  N      371.736     459.462    -346.364
  C      370.878     458.459    -346.501
  N      370.128     458.267    -345.358
  O      370.301     455.362    -349.972
  O      370.048     452.913    -349.282
  H      367.654     459.164    -346.629
  H      370.837     454.892    -350.642
  H      372.008     461.889    -342.535
  H      370.752     457.862    -347.388
  H      368.508     457.669    -344.239
  H      368.703     457.275    -347.291
  H      370.655     461.330    -340.697
  H      367.120     455.477    -347.115
  H      369.513     460.038    -340.861
  H      368.171     454.487    -344.667
  H      370.115     453.639    -345.923
  H      368.614     453.375    -346.835
  P      365.065     455.137    -345.593
  C      363.876     457.109    -346.771
  O      363.799     456.128    -345.761
  O      364.782     454.386    -344.212
  O      365.262     454.170    -346.715
  H      365.007     453.443    -344.290
  H      362.978     457.691    -346.772
  H      363.994     456.633    -347.722
  H      364.715     457.747    -346.585

 6  7  8  9  10  11  12  13  14  15  26  29  33  34 0
 6-311+G(2d,p)
 ****
 36  38  39  40  41 0
 6-311+G(2d,p)
 ****
 1  2  3  4  5  16  17  18  19  20  21  22  23  24  25 0
 3-21G
 ****
 27  28  30  31  32  35  37  42  43  44  45  46  47 0
 3-21G
 ****
 48  49 0
 3-21G
 ****


