%nproc=1
%NoSave
%Mem=1900MB
#P OB98/GEN NMR

erre ene a

0 1
  C       11.299    -188.425     298.435
  O       10.378    -188.930     299.387
  P       10.242    -188.128     300.770
  C       11.615    -189.047     302.784
  O       11.620    -188.321     301.561
  C       11.756    -190.545     302.509
  O       12.816    -190.773     301.554
  C       12.117    -191.381     303.731
  O       10.992    -191.565     304.575
  C       12.622    -192.654     303.050
  O       11.512    -193.458     302.627
  C       13.375    -192.091     301.831
  N       18.021    -192.992     299.887
  C       16.785    -193.279     299.430
  N       15.597    -193.032     300.011
  C       15.768    -192.401     301.189
  C       16.968    -192.068     301.793
  C       18.140    -192.381     301.092
  N       19.401    -192.088     301.564
  N       16.746    -191.456     303.015
  C       15.438    -191.415     303.138
  N       14.798    -191.966     302.058
  O        9.209    -189.020     301.610
  O        9.777    -186.706     300.634
  H       10.957    -192.901     302.053
  H        8.642    -188.454     302.173
  H       16.744    -193.775     298.464
  H       14.908    -191.001     303.986
  H       13.234    -192.706     300.931
  H       13.245    -193.273     303.711
  H       12.930    -190.906     304.291
  H       10.813    -190.904     302.064
  H       10.673    -188.871     303.310
  H       20.189    -192.479     301.064
  H       19.488    -191.765     302.518
  H       12.436    -188.686     303.419
  P       11.273    -192.072     306.070
  C       10.639    -194.478     306.735
  O       11.458    -193.661     305.913
  O        9.824    -191.953     306.736
  O       12.376    -191.353     306.785
  H        9.135    -192.356     306.177
  H       10.825    -195.526     306.492
  H        9.583    -194.248     306.562
  H       10.889    -194.301     307.789
  H       11.291    -189.049     297.566
  H       12.281    -188.416     298.859
  H       11.020    -187.429     298.162

 3  4  5  6  7  8  9  10  11  12  22  25  29  30  31  32 0
 6-311+G(2d,p)
 ****
 33  36  37 0
 6-311+G(2d,p)
 ****
 1  2  13  14  15  16  17  18  19  20  21  23  24  26 0
 3-21G
 ****
 27  28  34  35  38  39  40  41  42  43  44  45  46  47  48 0
 3-21G
 ****


