%nproc=1
%NoSave
%Mem=1900MB
#P OB98/GEN NMR

erre ene a

0 1
  C       60.949     294.763    -267.296
  O       62.312     295.028    -267.672
  P       62.630     296.486    -268.272
  C       64.911     296.631    -267.048
  O       64.224     296.689    -268.291
  C       66.430     296.537    -267.260
  O       66.844     295.149    -267.418
  C       66.937     297.310    -268.477
  O       68.242     297.810    -268.167
  C       67.067     296.219    -269.526
  O       67.932     296.612    -270.584
  C       67.570     295.060    -268.662
  N       69.817     291.305    -271.301
  C       70.288     292.476    -270.810
  N       69.624     293.439    -270.131
  C       68.335     293.069    -269.947
  C       67.716     291.914    -270.397
  C       68.510     291.004    -271.119
  N       68.030     289.836    -271.642
  N       66.369     291.921    -270.058
  C       66.196     293.065    -269.409
  N       67.359     293.772    -269.292
  O       62.132     297.474    -267.118
  O       61.933     296.764    -269.567
  H       67.698     297.520    -270.874
  H       61.310     297.928    -267.388
  H       71.355     292.665    -270.989
  H       65.254     293.408    -269.012
  H       68.647     295.135    -268.445
  H       66.082     295.993    -269.958
  H       66.283     298.122    -268.800
  H       66.916     296.926    -266.339
  H       64.567     295.754    -266.471
  H       68.665     289.244    -272.173
  H       67.044     289.622    -271.550
  H       64.639     297.506    -266.445
  P       68.538     299.333    -268.599
  C       70.341     299.822    -266.800
  O       70.062     299.629    -268.169
  O       67.670     300.203    -267.571
  O       68.194     299.637    -270.030
  H       67.447     301.062    -267.967
  H       71.285     299.319    -266.568
  H       69.554     299.425    -266.146
  H       70.447     300.897    -266.608
  H       60.872     293.766    -266.914
  H       60.316     294.867    -268.152
  H       60.646     295.458    -266.541

 3  4  5  6  7  8  9  10  11  12  22  25  29  30  31  32 0
 6-311+G(2d,p)
 ****
 33  36  37 0
 6-311+G(2d,p)
 ****
 1  2  13  14  15  16  17  18  19  20  21  23  24  26 0
 3-21G
 ****
 27  28  34  35  38  39  40  41  42  43  44  45  46  47  48 0
 3-21G
 ****


