%nproc=1
%NoSave
%Mem=1900MB
#P OB98/GEN NMR

erre ene a

0 1
  C       48.923    -247.238    -416.536
  O       48.127    -246.194    -415.963
  P       48.461    -244.700    -416.448
  C       49.829    -242.684    -415.558
  O       49.394    -244.020    -415.325
  C       50.023    -241.926    -414.236
  O       48.758    -241.777    -413.527
  C       50.999    -242.605    -413.273
  O       51.688    -241.564    -412.565
  C       50.073    -243.322    -412.304
  O       50.741    -243.660    -411.089
  C       48.968    -242.281    -412.183
  N       46.096    -242.504    -408.032
  C       47.356    -241.962    -408.214
  N       47.908    -241.345    -407.151
  N       48.008    -242.019    -409.353
  C       47.314    -242.629    -410.341
  C       46.058    -243.191    -410.287
  C       45.359    -243.154    -409.018
  O       44.245    -243.611    -408.803
  N       45.679    -243.693    -411.510
  C       46.737    -243.492    -412.279
  N       47.730    -242.804    -411.630
  O       47.059    -243.943    -416.284
  O       48.979    -244.624    -417.847
  H       51.160    -242.844    -410.744
  H       46.618    -243.867    -417.151
  H       45.646    -242.446    -407.139
  H       46.823    -243.800    -413.304
  H       49.255    -241.435    -411.544
  H       49.696    -244.249    -412.757
  H       47.438    -241.223    -406.270
  H       51.717    -243.280    -413.752
  H       48.816    -240.901    -407.272
  H       50.381    -240.915    -414.473
  H       49.093    -242.159    -416.169
  H       50.754    -242.703    -416.144
  P       53.266    -241.418    -412.803
  C       55.390    -242.153    -411.515
  O       54.003    -242.335    -411.720
  O       53.577    -239.929    -412.299
  O       53.706    -241.598    -414.223
  H       54.240    -239.514    -412.889
  H       55.639    -242.467    -410.494
  H       55.687    -241.108    -411.646
  H       55.948    -242.781    -412.222
  H       48.611    -248.182    -416.140
  H       49.953    -247.073    -416.297
  H       48.799    -247.238    -417.599

 3  4  5  6  7  8  9  10  11  12  23  26  30  31 0
 6-311+G(2d,p)
 ****
 33  35  36  37  38 0
 6-311+G(2d,p)
 ****
 1  2  13  14  15  16  17  18  19  20  21  22  24  25 0
 3-21G
 ****
 27  28  29  32  34  39  40  41  42  43  44  45  46  47  48  49 0
 3-21G
 ****


