%nproc=1
%NoSave
%Mem=1900MB
#P OB98/GEN NMR

erre ene a

0 1
  C     -213.171      82.395      30.050
  O     -212.927      83.809      30.134
  P     -211.412      84.344      30.072
  C     -211.133      84.852      32.616
  O     -210.683      84.128      31.483
  C     -210.010      85.030      33.649
  O     -209.477      83.732      34.044
  C     -208.822      85.873      33.153
  O     -208.302      86.575      34.289
  C     -207.834      84.810      32.702
  O     -206.499      85.284      32.615
  C     -208.057      83.754      33.789
  N     -207.572      82.418      33.437
  C     -207.086      81.609      34.459
  O     -206.980      81.960      35.631
  N     -206.683      80.351      34.084
  C     -206.678      79.851      32.814
  O     -206.274      78.728      32.540
  C     -207.173      80.760      31.770
  C     -207.590      81.979      32.124
  O     -211.624      85.935      30.041
  O     -210.628      83.909      28.878
  H     -206.492      86.013      31.967
  H     -211.052      86.331      29.357
  H     -206.343      79.748      34.813
  H     -207.191      80.401      30.750
  H     -207.970      82.664      31.372
  H     -207.574      84.079      34.717
  H     -208.126      84.444      31.711
  H     -209.094      86.576      32.361
  H     -210.444      85.479      34.549
  H     -211.961      84.309      33.086
  H     -211.506      85.829      32.290
  P     -208.573      88.156      34.400
  C     -206.253      88.819      33.389
  O     -207.659      88.874      33.298
  O     -207.810      88.480      35.775
  O     -210.018      88.535      34.423
  H     -206.938      88.065      35.826
  H     -205.912      87.827      33.695
  H     -205.903      89.564      34.107
  H     -205.829      89.048      32.406
  H     -214.224      82.211      30.106
  H     -212.678      81.899      30.860
  H     -212.793      82.022      29.121

 3  4  5  6  7  8  9  10  11  12  13  23  28  29  30  31  32 0
 6-311+G(2d,p)
 ****
 33  34 0
 6-311+G(2d,p)
 ****
 1  2  14  15  16  17  18  19  20  21  22  24  25  26 0
 3-21G
 ****
 27  35  36  37  38  39  40  41  42  43  44  45 0
 3-21G
 ****


