%nproc=1
%NoSave
%Mem=1900MB
#P OB98/GEN NMR

erre ene a

0 1
  C     -220.980     279.914    -349.190
  O     -220.938     279.287    -347.926
  H     -221.987     280.307    -349.351
  H     -220.762     279.178    -349.970
  H     -220.266     280.741    -349.255
  P     -219.516     279.033    -347.242
  C     -217.409     277.637    -347.782
  O     -218.805     277.810    -348.004
  C     -217.092     276.249    -347.231
  O     -217.536     275.241    -348.164
  C     -215.590     276.025    -347.020
  O     -215.103     276.465    -345.765
  C     -215.472     274.512    -347.161
  O     -215.681     273.853    -345.900
  C     -216.593     274.160    -348.140
  N     -214.007     271.023    -351.246
  C     -214.102     270.990    -349.866
  N     -213.388     270.026    -349.243
  N     -214.820     271.843    -349.177
  C     -215.395     272.806    -349.929
  C     -215.357     272.949    -351.300
  C     -214.620     271.961    -352.065
  O     -214.526     271.930    -353.285
  N     -216.027     274.074    -351.710
  C     -216.396     274.657    -350.583
  N     -216.102     273.878    -349.483
  O     -219.897     278.377    -345.826
  O     -218.664     280.251    -347.049
  H     -214.906     274.034    -345.332
  H     -219.228     278.627    -345.158
  H     -213.467     270.325    -351.724
  H     -216.911     275.604    -350.507
  H     -217.141     273.266    -347.817
  H     -214.473     274.230    -347.501
  H     -212.756     269.405    -349.717
  H     -215.015     276.489    -347.828
  H     -213.280     270.089    -348.228
  H     -217.655     276.091    -346.297
  H     -217.114     278.404    -347.058
  H     -216.850     277.822    -348.701
  P     -213.532     276.626    -345.505
  C     -211.406     275.124    -345.853
  O     -212.810     275.260    -345.899
  O     -213.427     276.652    -343.905
  O     -212.900     277.829    -346.126
  H     -213.358     277.568    -343.582
  H     -211.133     274.134    -346.155
  H     -211.063     275.300    -344.855
  H     -210.957     275.835    -346.515

 6  7  8  9  10  11  12  13  14  15  26  29  33  34 0
 6-311+G(2d,p)
 ****
 36  38  39  40  41 0
 6-311+G(2d,p)
 ****
 1  2  3  4  5  16  17  18  19  20  21  22  23  24  25 0
 3-21G
 ****
 27  28  30  31  32  35  37  42  43  44  45  46  47 0
 3-21G
 ****
 48  49 0
 3-21G
 ****


