%nproc=1
%NoSave
%Mem=1900MB
#P OB98/GEN NMR

erre ene a

0 1
  C      402.071     564.275    -172.200
  O      401.680     563.464    -171.104
  P      400.106     563.410    -170.744
  C      400.252     564.937    -168.657
  O      399.993     563.636    -169.161
  C      400.985     564.875    -167.306
  O      400.039     564.452    -166.284
  C      402.169     563.908    -167.288
  O      403.193     564.486    -166.471
  C      401.615     562.682    -166.578
  O      402.656     561.912    -165.974
  C      400.621     563.320    -165.606
  N      399.599     562.392    -165.158
  C      399.925     561.551    -164.081
  O      401.058     561.567    -163.607
  N      398.968     560.676    -163.607
  C      397.841     560.564    -164.231
  N      396.924     559.692    -163.718
  C      397.500     561.347    -165.443
  C      398.410     562.236    -165.832
  O      399.763     561.858    -170.928
  O      399.251     564.286    -171.596
  H      403.434     561.904    -166.580
  H      398.841     561.735    -171.236
  H      396.552     561.191    -165.939
  H      398.237     562.872    -166.708
  H      401.152     563.713    -164.709
  H      401.087     562.047    -167.297
  H      402.578     563.699    -168.283
  H      401.308     565.887    -167.049
  H      397.190     559.159    -162.901
  H      399.305     565.457    -168.493
  H      396.015     559.544    -164.138
  H      400.842     565.513    -169.382
  P      404.699     564.447    -167.019
  C      405.310     563.353    -164.770
  O      405.621     564.368    -165.705
  O      404.921     565.965    -167.476
  O      405.025     563.501    -168.128
  H      405.797     566.061    -167.897
  H      406.091     563.322    -164.006
  H      405.264     562.370    -165.265
  H      404.348     563.567    -164.285
  H      403.132     564.218    -172.325
  H      401.788     565.290    -172.012
  H      401.588     563.929    -173.090

 3  4  5  6  7  8  9  10  11  12  13  21  23  27  28  29  30  32 0
 6-311+G(2d,p)
 ****
 34  35 0
 6-311+G(2d,p)
 ****
 1  2  14  15  16  17  18  19  20  22  24  25  26 0
 3-21G
 ****
 31  33  36  37  38  39  40  41  42  43  44  45  46 0
 3-21G
 ****


