%nproc=1
%NoSave
%Mem=1900MB
#P OB98/GEN NMR

erre ene a

0 1
  C       67.587       0.438      82.333
  O       66.833       0.214      83.507
  H       67.998      -0.505      81.965
  H       66.931       0.860      81.567
  H       68.397       1.145      82.532
  P       67.625      -0.425      84.748
  C       66.549       0.351      86.970
  O       66.552      -0.616      85.931
  C       65.718       1.562      86.554
  O       64.444       1.085      86.046
  C       65.435       2.552      87.697
  O       65.759       3.889      87.296
  C       63.935       2.459      87.906
  O       63.348       3.700      88.280
  C       63.439       1.973      86.551
  N       58.389       2.651      86.369
  C       59.407       3.388      85.874
  N       60.724       3.103      85.871
  C       60.952       1.901      86.427
  C       60.016       1.027      86.953
  C       58.677       1.454      86.929
  N       57.646       0.727      87.483
  N       60.628      -0.112      87.443
  C       61.916       0.092      87.256
  N       62.161       1.301      86.659
  O       68.540       0.786      85.260
  O       68.441      -1.626      84.412
  H       63.559       4.344      87.580
  H       69.478       0.526      85.182
  H       59.126       4.338      85.426
  H       62.710      -0.573      87.571
  H       63.332       2.800      85.836
  H       63.730       1.725      88.694
  H       65.983       2.306      88.612
  H       66.226       2.070      85.725
  H       67.575       0.675      87.173
  H       56.738       1.159      87.525
  H       57.872      -0.112      87.998
  H       66.137      -0.101      87.878
  P       67.248       4.393      87.640
  C       67.649       5.954      85.604
  O       67.436       5.857      87.006
  O       68.168       3.452      86.729
  O       67.604       4.272      89.084
  H       68.817       2.981      87.287
  H       67.756       6.983      85.330
  H       66.813       5.532      85.086
  H       68.538       5.420      85.341

 6  7  8  9  10  11  12  13  14  15  25  28  32  33  34  35 0
 6-311+G(2d,p)
 ****
 36  39  40 0
 6-311+G(2d,p)
 ****
 1  2  3  4  5  16  17  18  19  20  21  22  23  24 0
 3-21G
 ****
 26  27  29  30  31  37  38  41  42  43  44  45  46  47  48 0
 3-21G
 ****


