%nproc=1
%NoSave
%Mem=1900MB
#P OB98/GEN NMR

erre ene a

0 1
  C     -213.888     856.835     450.858
  O     -213.973     856.958     449.457
  P     -214.139     858.387     448.751
  C     -211.588     858.748     448.824
  O     -212.864     859.272     449.188
  C     -210.575     859.889     448.651
  O     -210.756     860.469     447.317
  C     -210.755     861.017     449.686
  O     -209.563     861.364     450.398
  C     -211.375     862.135     448.865
  O     -211.220     863.421     449.433
  C     -210.740     861.905     447.494
  N     -211.436     862.605     446.424
  C     -211.264     863.984     446.347
  O     -210.558     864.644     447.109
  N     -211.986     864.626     445.378
  C     -212.930     864.059     444.578
  O     -213.615     864.717     443.802
  C     -213.100     862.606     444.725
  C     -212.342     861.953     445.611
  O     -215.449     859.062     448.974
  O     -213.817     858.073     447.217
  H     -211.785     864.042     448.939
  H     -212.927     857.712     447.050
  H     -211.872     865.625     445.313
  H     -213.850     862.129     444.111
  H     -212.441     860.876     445.741
  H     -209.697     862.215     447.484
  H     -212.455     861.942     448.801
  H     -211.459     860.713     450.480
  H     -209.571     859.453     448.708
  H     -211.677     858.206     447.888
  H     -211.244     858.038     449.591
  P     -209.518     862.000     451.866
  C     -209.228     860.234     453.748
  O     -210.108     860.933     452.895
  O     -210.104     863.375     451.977
  O     -207.960     862.023     452.216
  H     -207.774     862.756     452.827
  H     -209.657     859.258     453.985
  H     -209.103     860.801     454.676
  H     -208.250     860.079     453.276
  H     -213.781     855.803     451.120
  H     -214.778     857.226     451.305
  H     -213.040     857.383     451.213

 3  4  5  6  7  8  9  10  11  12  13  23  28  29  30  31  32 0
 6-311+G(2d,p)
 ****
 33  34 0
 6-311+G(2d,p)
 ****
 1  2  14  15  16  17  18  19  20  21  22  24  25  26  27 0
 3-21G
 ****
 35  36  37  38  39  40  41  42  43  44  45 0
 3-21G
 ****


