%nproc=1
%NoSave
%Mem=1900MB
#P OB98/GEN NMR

erre ene a

0 1
  C     -448.266      13.380     -91.454
  O     -448.150      11.974     -91.358
  H     -447.958      13.823     -90.504
  H     -449.306      13.656     -91.652
  H     -447.621      13.762     -92.252
  P     -448.390      11.133     -92.699
  C     -446.822       9.413     -91.484
  O     -447.864       9.640     -92.425
  C     -447.016       8.056     -90.810
  O     -447.088       6.995     -91.783
  C     -445.863       7.646     -89.910
  O     -445.801       8.399     -88.721
  C     -446.191       6.175     -89.695
  O     -447.223       6.015     -88.711
  C     -446.708       5.770     -91.099
  N     -445.724       5.011     -91.858
  C     -445.903       3.622     -91.867
  O     -446.853       3.114     -91.270
  N     -444.985       2.846     -92.531
  C     -443.992       3.405     -93.148
  N     -443.113       2.579     -93.778
  C     -443.781       4.864     -93.185
  C     -444.672       5.599     -92.520
  O     -447.278      11.725     -93.686
  O     -449.781      11.177     -93.239
  H     -447.492       5.077     -88.747
  H     -446.380      11.704     -93.316
  H     -442.944       5.288     -93.720
  H     -444.590       6.677     -92.496
  H     -447.615       5.162     -91.013
  H     -445.327       5.608     -89.346
  H     -444.914       7.700     -90.461
  H     -447.966       8.082     -90.260
  H     -443.279       1.583     -93.714
  H     -446.788      10.213     -90.738
  H     -442.288       2.898     -94.263
  H     -445.874       9.431     -92.030
  P     -444.443       9.134     -88.291
  C     -446.140      10.152     -86.642
  O     -444.764       9.903     -86.917
  O     -443.818       9.985     -89.346
  O     -443.512       7.929     -87.792
  H     -443.873       7.419     -87.047
  H     -446.230      10.666     -85.708
  H     -446.667       9.222     -86.590
  H     -446.556      10.755     -87.422

 6  7  8  9  10  11  12  13  14  15  16  26  30  31  32  33  35 0
 6-311+G(2d,p)
 ****
 37  38 0
 6-311+G(2d,p)
 ****
 1  2  3  4  5  17  18  19  20  21  22  23  24  25 0
 3-21G
 ****
 27  28  29  34  36  39  40  41  42  43  44  45  46 0
 3-21G
 ****


