%nproc=1
%NoSave
%Mem=1900MB
#P OB98/GEN NMR

erre ene a

0 1
  C     -609.483     612.467     262.600
  O     -608.517     612.268     261.578
  H     -608.980     612.875     263.482
  H     -609.962     611.523     262.877
  H     -610.239     613.180     262.267
  P     -608.954     611.412     260.288
  C     -609.080     613.509     258.787
  O     -609.803     612.431     259.368
  C     -609.391     613.647     257.290
  O     -610.820     613.612     257.068
  C     -608.931     614.967     256.680
  O     -607.537     615.136     256.620
  C     -609.748     615.007     255.397
  O     -609.149     614.246     254.349
  C     -611.083     614.338     255.846
  N     -612.156     615.309     256.010
  C     -612.788     615.718     254.847
  O     -612.467     615.332     253.715
  N     -613.797     616.632     255.008
  C     -614.183     617.192     256.180
  O     -615.097     618.020     256.257
  C     -613.460     616.745     257.378
  C     -612.492     615.829     257.252
  O     -609.656     610.115     260.569
  O     -607.594     611.245     259.469
  H     -608.411     614.775     253.994
  H     -607.673     610.532     258.779
  H     -614.273     616.931     254.168
  H     -613.740     617.171     258.339
  H     -611.938     615.490     258.107
  H     -611.397     613.593     255.105
  H     -609.872     616.032     255.023
  H     -609.320     615.783     257.312
  H     -608.949     612.800     256.774
  H     -608.004     613.305     258.913
  H     -609.330     614.441     259.312
  P     -606.830     616.557     256.604
  C     -606.305     616.331     259.168
  O     -606.801     617.145     258.095
  O     -607.206     617.487     255.497
  O     -605.275     616.140     256.388
  H     -604.871     616.835     255.845
  H     -606.359     616.879     260.086
  H     -605.288     616.063     258.972
  H     -606.899     615.444     259.247

 6  7  8  9  10  11  12  13  14  15  16  26  31  32  33  34  35 0
 6-311+G(2d,p)
 ****
 36  37 0
 6-311+G(2d,p)
 ****
 1  2  3  4  5  17  18  19  20  21  22  23  24  25 0
 3-21G
 ****
 27  28  29  30  38  39  40  41  42  43  44  45 0
 3-21G
 ****


