%nproc=1
%NoSave
%Mem=1900MB
#P OB98/GEN NMR

erre ene a

0 1
  C       14.003     143.801    -270.356
  O       14.513     143.301    -271.575
  P       15.054     141.809    -271.753
  C       13.610     141.274    -273.844
  O       14.920     141.405    -273.303
  C       13.603     140.668    -275.255
  O       13.971     141.679    -276.215
  C       14.661     139.565    -275.361
  O       14.372     138.254    -274.919
  C       15.190     139.661    -276.787
  O       14.585     138.705    -277.660
  C       14.817     141.083    -277.211
  N       17.760     143.374    -280.646
  C       16.512     142.810    -280.812
  N       16.086     142.673    -282.086
  N       15.766     142.396    -279.816
  C       16.370     142.509    -278.610
  C       17.593     143.066    -278.320
  C       18.388     143.556    -279.422
  O       19.534     143.986    -279.330
  N       17.911     142.943    -276.992
  C       16.895     142.276    -276.479
  N       15.955     141.956    -277.430
  O       14.640     140.814    -270.716
  O       16.647     142.029    -271.598
  H       14.714     137.821    -277.270
  H       17.011     141.238    -271.159
  H       18.322     143.602    -281.457
  H       16.811     141.972    -275.444
  H       14.240     141.071    -278.144
  H       16.268     139.464    -276.814
  H       16.691     142.846    -282.877
  H       15.505     139.876    -274.730
  H       15.258     142.114    -282.252
  H       12.598     140.341    -275.540
  H       13.155     142.267    -273.849
  H       13.004     140.647    -273.184
  P       15.356     137.281    -274.116
  C       13.783     135.709    -272.853
  O       14.646     135.857    -273.967
  O       15.334     137.849    -272.618
  O       16.758     137.237    -274.632
  H       16.140     137.563    -272.145
  H       13.602     134.646    -272.680
  H       12.828     136.200    -273.065
  H       14.225     136.149    -271.956
  H       13.705     144.820    -270.486
  H       14.760     143.744    -269.602
  H       13.158     143.217    -270.057

 3  4  5  6  7  8  9  10  11  12  23  26  30  31 0
 6-311+G(2d,p)
 ****
 33  35  36  37  38 0
 6-311+G(2d,p)
 ****
 1  2  13  14  15  16  17  18  19  20  21  22  24  25 0
 3-21G
 ****
 27  28  29  32  34  39  40  41  42  43  44  45  46  47  48  49 0
 3-21G
 ****


