%nproc=1
%NoSave
%Mem=1900MB
#P OB98/GEN NMR

erre ene a

0 1
  C       45.767    -618.339     156.197
  O       44.406    -618.744     156.149
  P       43.671    -619.057     157.548
  C       44.496    -620.361     159.638
  O       44.516    -620.243     158.219
  C       44.752    -621.808     160.057
  O       46.084    -622.203     159.693
  C       44.649    -622.047     161.559
  O       43.303    -622.218     161.982
  C       45.407    -623.361     161.688
  O       44.565    -624.460     161.288
  C       46.539    -623.173     160.674
  N       51.417    -624.321     161.689
  C       50.425    -625.043     161.138
  N       49.149    -624.670     160.910
  C       48.932    -623.418     161.359
  C       49.841    -622.580     161.977
  C       51.145    -623.067     162.132
  N       52.173    -622.322     162.670
  N       49.250    -621.374     162.300
  C       48.009    -621.482     161.872
  N       47.770    -622.694     161.283
  O       42.318    -619.783     157.088
  O       43.413    -617.867     158.404
  H       43.919    -624.598     162.007
  H       41.640    -619.693     157.786
  H       50.692    -626.046     160.827
  H       47.260    -620.708     161.955
  H       46.781    -624.094     160.136
  H       45.733    -623.567     162.710
  H       45.163    -621.269     162.130
  H       44.042    -622.444     159.517
  H       43.511    -620.045     160.006
  H       53.111    -622.676     162.580
  H       52.013    -621.328     162.813
  H       45.258    -619.698     160.061
  P       42.938    -621.702     163.461
  C       43.859    -622.252     165.832
  O       43.988    -622.421     164.429
  O       41.555    -622.437     163.774
  O       42.834    -620.215     163.580
  H       41.040    -621.930     164.429
  H       44.435    -623.035     166.336
  H       42.810    -622.333     166.140
  H       44.253    -621.272     166.122
  H       46.123    -618.166     155.203
  H       46.352    -619.108     156.657
  H       45.851    -617.438     156.767

 3  4  5  6  7  8  9  10  11  12  22  25  29  30  31  32 0
 6-311+G(2d,p)
 ****
 33  36  37 0
 6-311+G(2d,p)
 ****
 1  2  13  14  15  16  17  18  19  20  21  23  24  26 0
 3-21G
 ****
 27  28  34  35  38  39  40  41  42  43  44  45  46  47  48 0
 3-21G
 ****


