%nproc=1
%NoSave
%Mem=1900MB
#P OB98/GEN NMR

erre ene a

0 1
  C      111.188     -34.599    -165.040
  O      112.152     -35.354    -165.777
  P      111.965     -35.378    -167.371
  C      113.409     -33.267    -167.810
  O      113.240     -34.660    -168.029
  C      114.139     -32.619    -168.989
  O      114.334     -31.205    -168.802
  C      115.523     -33.202    -169.236
  O      115.414     -34.429    -169.938
  C      116.182     -32.100    -170.054
  O      115.843     -32.210    -171.451
  C      115.572     -30.823    -169.454
  N      119.995     -28.433    -168.805
  C      119.529     -29.157    -169.886
  N      120.348     -29.232    -170.956
  N      118.364     -29.749    -169.915
  C      117.650     -29.588    -168.777
  C      117.991     -28.873    -167.653
  C      119.285     -28.225    -167.631
  O      119.733     -27.555    -166.708
  N      116.982     -28.887    -166.723
  C      116.089     -29.713    -167.237
  N      116.416     -30.114    -168.509
  O      110.768     -34.345    -167.617
  O      111.644     -36.731    -167.912
  H      116.353     -31.550    -171.956
  H      109.968     -34.827    -167.900
  H      120.904     -28.006    -168.832
  H      115.182     -30.029    -166.744
  H      115.313     -30.097    -170.234
  H      117.272     -32.148    -169.998
  H      121.257     -28.798    -171.003
  H      116.053     -33.333    -168.286
  H      120.022     -29.750    -171.762
  H      113.512     -32.759    -169.880
  H      113.972     -33.099    -166.890
  H      112.424     -32.812    -167.662
  P      116.323     -35.654    -169.448
  C      115.008     -37.225    -167.855
  O      115.351     -36.898    -169.187
  O      116.778     -35.204    -167.979
  O      117.506     -35.934    -170.314
  H      117.727     -35.392    -167.859
  H      114.015     -37.682    -167.849
  H      114.996     -36.341    -167.211
  H      115.732     -37.946    -167.464
  H      111.413     -34.656    -163.996
  H      110.211     -34.999    -165.217
  H      111.218     -33.577    -165.356

 3  4  5  6  7  8  9  10  11  12  23  26  30  31 0
 6-311+G(2d,p)
 ****
 33  35  36  37  38 0
 6-311+G(2d,p)
 ****
 1  2  13  14  15  16  17  18  19  20  21  22  24  25 0
 3-21G
 ****
 27  28  29  32  34  39  40  41  42  43  44  45  46  47  48  49 0
 3-21G
 ****


