%nproc=1
%NoSave
%Mem=1900MB
#P OB98/GEN NMR

erre ene a

0 1
  C     1521.429    -816.989     417.174
  O     1520.598    -815.898     417.526
  P     1519.014    -816.047     417.825
  C     1518.826    -815.216     420.297
  O     1518.837    -816.298     419.376
  C     1520.033    -815.247     421.293
  O     1521.254    -814.930     420.568
  C     1519.877    -814.180     422.351
  O     1519.077    -814.431     423.498
  C     1521.313    -813.719     422.665
  O     1521.859    -814.430     423.795
  C     1522.080    -814.090     421.354
  N     1525.065    -809.941     421.179
  C     1524.884    -810.814     422.190
  N     1525.577    -810.607     423.319
  N     1524.126    -811.905     422.123
  C     1523.399    -811.977     420.936
  C     1523.473    -811.142     419.877
  C     1524.410    -809.987     419.935
  O     1524.595    -809.203     419.044
  N     1522.617    -811.526     418.871
  C     1522.033    -812.595     419.343
  N     1522.493    -812.904     420.659
  O     1518.263    -816.936     416.873
  O     1518.471    -814.525     417.617
  H     1522.679    -813.994     424.057
  H     1517.551    -814.632     417.239
  H     1525.697    -809.151     421.267
  H     1521.268    -813.166     418.824
  H     1522.984    -814.647     421.592
  H     1521.341    -812.660     422.926
  H     1526.109    -809.736     423.469
  H     1519.414    -813.286     421.842
  H     1525.282    -811.139     424.140
  H     1520.198    -816.262     421.692
  H     1517.893    -815.256     420.858
  H     1518.803    -814.266     419.761
  P     1517.514    -814.091     423.655
  C     1516.913    -816.425     424.585
  O     1516.718    -815.492     423.547
  O     1517.127    -813.341     422.301
  O     1517.160    -813.261     424.876
  H     1516.276    -812.877     422.398
  H     1516.589    -817.403     424.254
  H     1516.300    -816.124     425.454
  H     1517.993    -816.486     424.884
  H     1522.430    -816.642     417.027
  H     1521.070    -817.434     416.270
  H     1521.415    -817.716     417.959

 3  4  5  6  7  8  9  10  11  12  23  26  30  31 0
 6-311+G(2d,p)
 ****
 33  35  36  37  38 0
 6-311+G(2d,p)
 ****
 1  2  13  14  15  16  17  18  19  20  21  22  24  25 0
 3-21G
 ****
 27  28  29  32  34  39  40  41  42  43  44  45  46  47  48  49 0
 3-21G
 ****


