%nproc=1
%NoSave
%Mem=1900MB
#P OB98/GEN NMR

erre ene a

0 1
  C      -48.381       1.676     -39.127
  O      -49.044       2.923     -39.090
  H      -49.084       0.884     -39.395
  H      -47.592       1.718     -39.883
  H      -47.927       1.459     -38.156
  P      -50.256       3.051     -38.045
  C      -49.082       3.090     -35.739
  O      -49.686       3.853     -36.773
  C      -47.974       3.899     -35.071
  O      -46.929       4.133     -36.053
  C      -48.432       5.263     -34.528
  O      -48.004       5.434     -33.171
  C      -47.702       6.272     -35.396
  O      -47.333       7.450     -34.687
  C      -46.489       5.485     -35.875
  N      -42.393       7.641     -38.011
  C      -42.527       6.887     -36.899
  N      -43.628       6.261     -36.437
  C      -44.665       6.447     -37.271
  C      -44.675       7.170     -38.452
  C      -43.474       7.806     -38.808
  N      -43.352       8.621     -39.912
  N      -45.928       7.142     -39.035
  C      -46.673       6.450     -38.196
  N      -45.957       6.023     -37.109
  O      -50.429       1.554     -37.501
  O      -51.524       3.574     -38.627
  H      -46.998       8.089     -35.342
  H      -51.326       1.241     -37.726
  H      -41.630       6.775     -36.295
  H      -47.735       6.270     -38.302
  H      -45.685       5.481     -35.128
  H      -48.350       6.558     -36.232
  H      -49.516       5.397     -34.586
  H      -47.532       3.296     -34.269
  H      -48.652       2.176     -36.161
  H      -42.490       9.128     -40.028
  H      -44.182       8.834     -40.446
  H      -49.848       2.813     -35.006
  P      -49.027       4.929     -32.037
  C      -47.928       2.686     -31.323
  O      -48.201       4.040     -30.983
  O      -49.937       3.866     -32.814
  O      -49.852       6.020     -31.442
  H      -50.878       4.116     -32.740
  H      -47.375       2.224     -30.532
  H      -47.354       2.654     -32.225
  H      -48.850       2.162     -31.468

 6  7  8  9  10  11  12  13  14  15  25  28  32  33  34  35 0
 6-311+G(2d,p)
 ****
 36  39  40 0
 6-311+G(2d,p)
 ****
 1  2  3  4  5  16  17  18  19  20  21  22  23  24 0
 3-21G
 ****
 26  27  29  30  31  37  38  41  42  43  44  45  46  47  48 0
 3-21G
 ****


