%nproc=1
%NoSave
%Mem=1900MB
#P OB98/GEN NMR

erre ene a

0 1
  C     -346.402     -28.996     171.993
  O     -347.662     -29.086     172.629
  H     -345.911     -29.972     172.042
  H     -345.771     -28.261     172.500
  H     -346.530     -28.718     170.942
  P     -348.506     -27.730     172.758
  C     -347.796     -27.377     175.236
  O     -347.812     -26.857     173.913
  C     -346.751     -26.629     176.070
  O     -345.423     -26.979     175.608
  C     -346.834     -25.114     175.951
  O     -347.866     -24.557     176.752
  C     -345.452     -24.712     176.433
  O     -345.387     -24.629     177.864
  C     -344.565     -25.854     175.899
  N     -343.789     -25.441     174.731
  C     -342.448     -25.824     174.733
  O     -341.928     -26.466     175.649
  N     -341.705     -25.404     173.665
  C     -342.152     -24.614     172.639
  O     -341.418     -24.223     171.741
  C     -343.571     -24.227     172.699
  C     -344.315     -24.648     173.727
  O     -349.879     -28.216     173.427
  O     -348.737     -27.005     171.472
  H     -350.590     -28.210     172.758
  H     -344.472     -24.360     178.077
  H     -340.736     -25.671     173.645
  H     -343.957     -23.598     171.905
  H     -345.359     -24.366     173.800
  H     -343.862     -26.190     176.676
  H     -345.167     -23.740     176.041
  H     -346.946     -24.819     174.897
  H     -346.850     -26.942     177.114
  H     -347.534     -28.442     175.211
  H     -348.797     -27.269     175.675
  P     -348.573     -23.213     176.228
  C     -346.794     -21.714     177.469
  O     -347.435     -22.082     176.254
  O     -349.516     -22.870     177.476
  O     -349.284     -23.390     174.924
  H     -349.155     -23.229     178.311
  H     -346.072     -20.949     177.274
  H     -346.304     -22.569     177.887
  H     -347.524     -21.348     178.161

 6  7  8  9  10  11  12  13  14  15  16  27  31  32  33  34  35 0
 6-311+G(2d,p)
 ****
 36  37 0
 6-311+G(2d,p)
 ****
 1  2  3  4  5  17  18  19  20  21  22  23  24  25 0
 3-21G
 ****
 26  28  29  30  38  39  40  41  42  43  44  45 0
 3-21G
 ****


