%nproc=1
%NoSave
%Mem=1900MB
#P OB98/GEN NMR

erre ene a

0 1
  C     -268.792     381.266     696.519
  O     -269.589     380.173     696.918
  H     -268.625     381.201     695.442
  H     -267.823     381.221     697.022
  H     -269.279     382.216     696.744
  P     -270.221     380.173     698.393
  C     -272.359     378.956     697.603
  O     -271.220     378.916     698.457
  C     -272.678     377.561     697.054
  O     -271.519     377.059     696.336
  C     -273.032     376.539     698.142
  O     -273.959     375.606     697.564
  C     -271.690     375.868     698.378
  O     -271.842     374.629     699.040
  C     -271.147     375.811     696.951
  N     -269.698     375.586     696.908
  C     -269.279     374.264     696.784
  O     -270.058     373.303     696.747
  N     -267.924     374.070     696.761
  C     -266.975     375.031     696.897
  O     -265.772     374.798     696.901
  C     -267.479     376.403     697.067
  C     -268.792     376.618     697.066
  O     -270.816     381.466     698.847
  O     -269.018     379.708     699.343
  H     -270.971     374.305     699.357
  H     -269.114     380.105     700.226
  H     -267.601     373.119     696.662
  H     -266.749     377.198     697.196
  H     -269.192     377.620     697.191
  H     -271.622     375.000     696.379
  H     -271.048     376.498     699.007
  H     -273.453     376.985     699.047
  H     -273.495     377.658     696.317
  H     -272.127     379.637     696.772
  H     -273.219     379.348     698.157
  P     -275.529     375.662     697.876
  C     -275.691     374.253     695.721
  O     -276.273     374.543     696.981
  O     -276.128     377.030     697.764
  O     -275.677     375.104     699.363
  H     -276.464     375.497     699.788
  H     -276.270     373.502     695.225
  H     -274.692     373.898     695.863
  H     -275.672     375.141     695.124

 6  7  8  9  10  11  12  13  14  15  16  26  31  32  33  34  35 0
 6-311+G(2d,p)
 ****
 36  37 0
 6-311+G(2d,p)
 ****
 1  2  3  4  5  17  18  19  20  21  22  23  24  25 0
 3-21G
 ****
 27  28  29  30  38  39  40  41  42  43  44  45 0
 3-21G
 ****


