%nproc=1
%NoSave
%Mem=1900MB
#P OB98/GEN NMR

erre ene a

0 1
  C      102.478     -17.950    -189.079
  O      101.686     -16.780    -189.131
  H      103.219     -17.907    -189.880
  H      101.848     -18.830    -189.230
  H      102.995     -18.020    -188.119
  P      100.585     -16.598    -187.978
  C      102.203     -15.639    -186.193
  O      101.097     -15.390    -187.048
  C      102.730     -14.334    -185.598
  O      103.750     -14.648    -184.602
  C      103.366     -13.383    -186.623
  O      103.075     -12.039    -186.220
  C      104.855     -13.624    -186.428
  O      105.651     -12.538    -186.896
  C      104.898     -13.838    -184.916
  N      109.654     -12.927    -183.552
  C      108.632     -12.057    -183.876
  N      108.918     -10.737    -183.831
  N      107.432     -12.446    -184.215
  C      107.276     -13.791    -184.187
  C      108.207     -14.757    -183.890
  C      109.542     -14.315    -183.541
  O      110.492     -15.038    -183.264
  N      107.666     -16.015    -184.001
  C      106.413     -15.807    -184.363
  N      106.130     -14.474    -184.489
  O      100.812     -17.896    -187.070
  O       99.175     -16.486    -188.452
  H      105.287     -11.712    -186.516
  H      100.210     -18.612    -187.348
  H      110.564     -12.575    -183.311
  H      105.678     -16.578    -184.549
  H      104.817     -12.897    -184.359
  H      105.165     -14.531    -186.963
  H      109.805     -10.364    -183.533
  H      103.036     -13.542    -187.653
  H      108.169     -10.083    -184.023
  H      101.910     -13.839    -185.063
  H      103.000     -16.116    -186.774
  H      101.893     -16.318    -185.392
  P      102.421     -11.054    -187.300
  C       99.989     -11.955    -187.130
  O      100.874     -10.865    -186.928
  O      102.359     -11.963    -188.619
  O      103.192      -9.797    -187.533
  H      102.401     -11.398    -189.412
  H       99.000     -11.671    -186.836
  H      100.310     -12.789    -186.542
  H       99.989     -12.227    -188.165

 6  7  8  9  10  11  12  13  14  15  26  29  33  34 0
 6-311+G(2d,p)
 ****
 36  38  39  40  41 0
 6-311+G(2d,p)
 ****
 1  2  3  4  5  16  17  18  19  20  21  22  23  24  25 0
 3-21G
 ****
 27  28  30  31  32  35  37  42  43  44  45  46  47 0
 3-21G
 ****
 48  49 0
 3-21G
 ****


