%nproc=1
%NoSave
%Mem=1900MB
#P OB98/GEN NMR

erre ene a

0 1
  C      208.061    -934.138      80.352
  O      208.770    -933.522      79.298
  H      208.449    -933.757      81.297
  H      208.198    -935.219      80.326
  H      206.995    -933.891      80.285
  P      208.439    -933.956      77.789
  C      210.111    -935.925      77.808
  O      208.751    -935.524      77.674
  C      210.357    -937.228      77.043
  O      209.907    -937.026      75.671
  C      211.847    -937.625      77.004
  O      212.080    -938.956      77.449
  C      212.271    -937.251      75.587
  O      213.366    -937.993      75.098
  C      210.977    -937.408      74.784
  N      210.936    -936.599      73.561
  C      210.754    -937.275      72.361
  O      210.604    -938.487      72.246
  N      210.737    -936.488      71.237
  C      210.896    -935.125      71.199
  O      210.869    -934.474      70.164
  C      211.112    -934.478      72.509
  C      211.123    -935.233      73.604
  O      209.072    -933.116      76.733
  O      206.843    -933.897      77.715
  H      214.117    -937.827      75.703
  H      206.572    -933.100      77.214
  H      210.584    -936.960      70.366
  H      211.249    -933.403      72.511
  H      211.283    -934.778      74.581
  H      210.828    -938.444      74.493
  H      212.568    -936.198      75.583
  H      212.423    -937.018      77.720
  H      209.742    -938.019      77.477
  H      210.320    -936.066      78.872
  H      210.763    -935.139      77.412
  P      212.741    -939.359      78.838
  C      215.103    -938.562      78.008
  O      214.108    -938.534      79.007
  O      212.799    -940.822      79.141
  O      211.774    -938.678      79.939
  H      211.794    -939.268      80.716
  H      215.929    -937.952      78.310
  H      214.699    -938.187      77.091
  H      215.437    -939.569      77.865

 6  7  8  9  10  11  12  13  14  15  16  26  31  32  33  34  35 0
 6-311+G(2d,p)
 ****
 36  37 0
 6-311+G(2d,p)
 ****
 1  2  3  4  5  17  18  19  20  21  22  23  24  25 0
 3-21G
 ****
 27  28  29  30  38  39  40  41  42  43  44  45 0
 3-21G
 ****


