%nproc=1
%NoSave
%Mem=1900MB
#P OB98/GEN NMR

erre ene a

0 1
  C       -9.954      87.009     206.850
  O       -9.259      86.510     207.981
  P       -9.233      87.323     209.362
  C       -9.718      85.285     210.854
  O       -8.754      86.256     210.463
  C       -9.040      84.128     211.573
  O       -8.345      83.321     210.589
  C       -7.968      84.512     212.596
  O       -8.472      84.833     213.886
  C       -7.171      83.217     212.676
  O       -7.865      82.270     213.507
  C       -7.172      82.747     211.218
  N       -2.363      81.496     209.992
  C       -3.311      80.852     210.707
  N       -4.563      81.258     211.007
  C       -4.818      82.451     210.443
  C       -3.956      83.228     209.687
  C       -2.670      82.702     209.463
  N       -1.711      83.354     208.716
  N       -4.568      84.404     209.298
  C       -5.783      84.328     209.803
  N       -5.982      83.166     210.494
  O      -10.486      88.061     209.673
  O       -7.961      88.287     209.230
  H       -7.851      82.627     214.418
  H       -8.011      89.003     209.891
  H       -3.028      79.877     211.098
  H       -6.542      85.090     209.698
  H       -7.258      81.656     211.130
  H       -6.176      83.355     213.113
  H       -7.321      85.311     212.211
  H       -9.811      83.504     212.037
  H      -10.213      84.908     209.946
  H       -0.868      82.847     208.498
  H       -1.994      84.171     208.187
  H      -10.479      85.752     211.484
  P       -8.179      86.313     214.442
  C       -9.987      86.318     216.329
  O       -8.623      86.293     215.980
  O       -8.759      87.412     213.620
  O       -6.577      86.351     214.519
  H       -6.181      85.761     215.180
  H      -10.084      86.142     217.405
  H      -10.545      85.550     215.796
  H      -10.412      87.307     216.105
  H       -9.850      86.323     206.036
  H       -9.546      87.958     206.571
  H      -10.991      87.123     207.090

 3  4  5  6  7  8  9  10  11  12  22  25  29  30  31  32 0
 6-311+G(2d,p)
 ****
 33  36  37 0
 6-311+G(2d,p)
 ****
 1  2  13  14  15  16  17  18  19  20  21  23  24  26 0
 3-21G
 ****
 27  28  34  35  38  39  40  41  42  43  44  45  46  47  48 0
 3-21G
 ****


