%nproc=1
%NoSave
%Mem=1900MB
#P OB98/GEN NMR

erre ene a

0 1
  C     -208.357      24.320      81.005
  O     -208.892      23.629      79.890
  P     -209.974      22.478      80.152
  C     -209.953      20.066      81.123
  O     -209.210      21.238      80.827
  C     -209.013      18.926      81.519
  O     -208.297      18.457      80.335
  C     -207.959      19.319      82.564
  O     -207.716      18.169      83.387
  C     -206.737      19.598      81.709
  O     -205.521      19.552      82.438
  C     -206.891      18.500      80.652
  N     -206.077      18.738      79.462
  C     -204.876      18.044      79.359
  O     -204.465      17.251      80.205
  N     -204.110      18.336      78.263
  C     -204.376      19.296      77.329
  O     -203.591      19.589      76.435
  C     -205.658      19.999      77.489
  C     -206.438      19.692      78.529
  O     -210.318      21.956      78.680
  O     -211.194      22.924      80.886
  H     -205.343      18.619      82.651
  H     -211.158      22.344      78.370
  H     -203.242      17.834      78.166
  H     -205.911      20.750      76.753
  H     -207.380      20.208      78.682
  H     -206.630      17.525      81.082
  H     -206.826      20.596      81.264
  H     -208.251      20.174      83.181
  H     -209.618      18.086      81.884
  H     -210.522      19.770      80.240
  H     -210.666      20.276      81.928
  P     -207.327      18.415      84.927
  C     -205.082      17.966      86.187
  O     -205.729      18.393      85.006
  O     -207.765      17.015      85.571
  O     -208.011      19.595      85.538
  H     -207.503      16.254      85.028
  H     -205.642      17.174      86.690
  H     -204.970      18.815      86.864
  H     -204.090      17.587      85.928
  H     -207.654      25.052      80.667
  H     -207.865      23.625      81.653
  H     -209.148      24.805      81.537

 3  4  5  6  7  8  9  10  11  12  13  23  28  29  30  31  32 0
 6-311+G(2d,p)
 ****
 33  34 0
 6-311+G(2d,p)
 ****
 1  2  14  15  16  17  18  19  20  21  22  24  25  26 0
 3-21G
 ****
 27  35  36  37  38  39  40  41  42  43  44  45 0
 3-21G
 ****


