%nproc=1
%NoSave
%Mem=1900MB
#P OB98/GEN NMR

erre ene a

0 1
  C     -837.481    -917.477    1280.881
  O     -838.864    -917.732    1281.015
  H     -836.947    -918.421    1280.919
  H     -837.132    -916.837    1281.694
  H     -837.279    -916.995    1279.918
  P     -839.888    -916.493    1281.065
  C     -841.239    -917.242    1283.143
  O     -841.244    -917.043    1281.736
  C     -842.094    -918.452    1283.505
  O     -843.481    -918.061    1283.409
  C     -841.885    -919.650    1282.559
  O     -841.549    -920.859    1283.230
  C     -843.118    -919.623    1281.677
  O     -843.474    -920.873    1281.122
  C     -844.170    -919.015    1282.596
  N     -845.279    -918.356    1281.867
  C     -846.241    -919.190    1281.281
  O     -846.251    -920.410    1281.335
  N     -847.262    -918.543    1280.602
  C     -847.367    -917.189    1280.464
  O     -848.300    -916.664    1279.841
  C     -846.325    -916.369    1281.083
  C     -845.335    -916.984    1281.745
  O     -840.059    -915.777    1279.764
  O     -839.287    -915.529    1282.185
  H     -844.334    -920.755    1280.651
  H     -838.851    -914.768    1281.771
  H     -847.953    -919.139    1280.202
  H     -846.394    -915.299    1280.964
  H     -844.553    -916.424    1282.218
  H     -844.622    -919.778    1283.239
  H     -842.941    -918.944    1280.826
  H     -840.986    -919.474    1281.924
  H     -841.898    -918.740    1284.533
  H     -841.642    -916.338    1283.609
  H     -840.200    -917.395    1283.480
  P     -840.092    -921.486    1283.333
  C     -840.720    -923.989    1282.703
  O     -840.229    -923.045    1283.657
  O     -839.105    -920.719    1284.131
  O     -839.571    -921.515    1281.792
  H     -838.601    -921.392    1281.831
  H     -840.724    -924.967    1283.138
  H     -840.088    -923.985    1281.840
  H     -841.716    -923.722    1282.417

 6  7  8  9  10  11  12  13  14  15  16  26  31  32  33  34  35 0
 6-311+G(2d,p)
 ****
 36  37 0
 6-311+G(2d,p)
 ****
 1  2  3  4  5  17  18  19  20  21  22  23  24  25 0
 3-21G
 ****
 27  28  29  30  38  39  40  41  42  43  44  45 0
 3-21G
 ****


