%nproc=1
%NoSave
%Mem=1900MB
#P OB98/GEN NMR

erre ene a

0 1
  C     -213.428       2.592      49.520
  O     -213.709       1.244      49.197
  H     -214.327       3.048      49.944
  H     -213.146       3.143      48.617
  H     -212.622       2.647      50.257
  P     -212.498       0.379      48.596
  C     -210.765       1.167      46.822
  O     -212.138       1.036      47.177
  C     -210.579       2.381      45.914
  O     -211.117       3.555      46.567
  C     -209.124       2.714      45.606
  O     -208.593       1.876      44.592
  C     -209.237       4.174      45.188
  O     -209.619       4.301      43.813
  C     -210.362       4.693      46.093
  N     -208.476       9.215      47.504
  C     -208.964       8.768      46.325
  N     -209.466       7.549      46.036
  C     -209.445       6.759      47.124
  C     -208.973       7.073      48.388
  C     -208.471       8.373      48.564
  N     -207.941       8.820      49.755
  N     -209.073       5.982      49.229
  C     -209.607       5.030      48.489
  N     -209.853       5.455      47.215
  O     -213.208      -1.004      48.207
  O     -211.342       0.175      49.517
  H     -209.867       5.236      43.676
  H     -213.101      -1.642      48.936
  H     -208.943       9.482      45.508
  H     -209.823       4.023      48.826
  H     -211.064       5.341      45.551
  H     -208.286       4.698      45.309
  H     -208.517       2.653      46.517
  H     -211.147       2.216      44.991
  H     -210.442       0.267      46.290
  H     -210.171       1.275      47.737
  H     -207.578       9.757      49.802
  H     -207.835       8.164      50.518
  P     -207.249       1.063      44.901
  C     -204.799       1.750      45.438
  O     -206.021       2.090      44.802
  O     -207.076       0.136      43.605
  O     -207.281       0.262      46.160
  H     -207.385      -0.769      43.793
  H     -204.085       2.532      45.281
  H     -204.424       0.837      45.025
  H     -204.966       1.625      46.488

 6  7  8  9  10  11  12  13  14  15  25  28  32  33  34  35 0
 6-311+G(2d,p)
 ****
 36  37  40 0
 6-311+G(2d,p)
 ****
 1  2  3  4  5  16  17  18  19  20  21  22  23  24 0
 3-21G
 ****
 26  27  29  30  31  38  39 41  42  43  44  45  46  47  48 0
 3-21G
 ****


