%nproc=1
%NoSave
%Mem=1900MB
#P OB98/GEN NMR

erre ene a

0 1
  C      -78.745    -381.206     108.899
  O      -77.942    -380.661     107.872
  H      -78.115    -381.628     109.691
  H      -79.361    -380.411     109.325
  H      -79.400    -381.982     108.492
  P      -76.884    -381.656     107.191
  C      -75.319    -380.702     109.027
  O      -75.683    -381.830     108.242
  C      -75.184    -381.100     110.491
  O      -76.445    -381.601     110.986
  C      -74.178    -382.209     110.764
  O      -72.840    -381.722     110.767
  C      -74.616    -382.655     112.151
  O      -74.089    -381.751     113.141
  C      -76.145    -382.515     112.074
  N      -78.215    -386.687     114.240
  C      -77.592    -385.606     114.771
  N      -77.059    -384.545     114.136
  C      -77.224    -384.651     112.808
  C      -77.836    -385.690     112.118
  C      -78.338    -386.752     112.893
  N      -78.953    -387.853     112.340
  N      -77.828    -385.450     110.763
  C      -77.230    -384.284     110.628
  N      -76.837    -383.766     111.836
  O      -76.229    -380.766     106.028
  O      -77.454    -382.924     106.652
  H      -73.118    -381.863     113.136
  H      -76.039    -381.340     105.261
  H      -77.522    -385.597     115.856
  H      -77.060    -383.780     109.686
  H      -76.552    -382.069     112.988
  H      -74.273    -383.658     112.408
  H      -74.300    -383.038     110.059
  H      -74.936    -380.195     111.065
  H      -76.090    -379.931     108.930
  H      -79.464    -388.476     112.943
  H      -79.049    -387.886     111.328
  H      -74.370    -380.302     108.652
  P      -71.883    -382.172     109.559
  C      -71.197    -384.077     111.184
  O      -71.524    -383.708     109.846
  O      -70.517    -381.405     109.879
  O      -72.395    -381.856     108.194
  H      -70.011    -381.272     109.052
  H      -70.982    -385.124     111.223
  H      -72.024    -383.859     111.826
  H      -70.339    -383.525     111.507

 6  7  8  9  10  11  12  13  14  15  25  28  32  33  34  35 0
 6-311+G(2d,p)
 ****
 36  39  40 0
 6-311+G(2d,p)
 ****
 1  2  3  4  5  16  17  18  19  20  21  22  23  24 0
 3-21G
 ****
 26  27  29  30  31  37  38  41  42  43  44  45  46  47  48 0
 3-21G
 ****


