%nproc=1
%NoSave
%Mem=1900MB
#P OB98/GEN NMR

erre ene a

0 1
  C      -51.382     -26.411     -20.027
  O      -52.589     -25.731     -19.765
  P      -53.867     -26.417     -19.104
  C      -54.427     -27.579     -16.831
  O      -53.429     -27.076     -17.710
  C      -54.041     -28.966     -16.295
  O      -54.106     -29.916     -17.389
  C      -52.596     -28.986     -15.770
  O      -52.429     -29.713     -14.560
  C      -51.801     -29.454     -16.981
  O      -50.526     -29.982     -16.654
  C      -52.779     -30.424     -17.637
  N      -52.854     -33.687     -21.531
  C      -53.341     -33.851     -20.249
  N      -53.730     -35.102     -19.918
  N      -53.403     -32.885     -19.371
  C      -52.873     -31.720     -19.809
  C      -52.364     -31.438     -21.055
  C      -52.332     -32.504     -22.027
  O      -51.805     -32.434     -23.137
  N      -51.852     -30.168     -21.121
  C      -52.019     -29.691     -19.904
  N      -52.605     -30.609     -19.063
  O      -54.746     -27.211     -20.013
  O      -54.709     -25.128     -18.615
  H      -50.047     -29.304     -16.144
  H      -55.657     -25.353     -18.705
  H      -52.758     -34.492     -22.138
  H      -51.710     -28.708     -19.571
  H      -52.712     -31.419     -17.194
  H      -51.629     -28.580     -17.620
  H      -53.557     -35.892     -20.523
  H      -52.272     -27.974     -15.503
  H      -53.851     -35.300     -18.928
  H      -54.769     -29.275     -15.538
  H      -55.350     -27.646     -17.418
  H      -54.602     -26.882     -16.009
  P      -51.247     -29.620     -13.491
  C      -50.342     -27.890     -11.829
  O      -51.142     -28.108     -12.976
  O      -49.904     -29.800     -14.341
  O      -51.309     -30.641     -12.403
  H      -49.270     -30.346     -13.837
  H      -50.571     -26.899     -11.427
  H      -49.286     -27.925     -12.106
  H      -50.549     -28.642     -11.062
  H      -50.681     -25.735     -20.471
  H      -51.569     -27.223     -20.698
  H      -50.980     -26.790     -19.111

 3  4  5  6  7  8  9  10  11  12  23  26  30  31 0
 6-311+G(2d,p)
 ****
 33  35  36  37  38 0
 6-311+G(2d,p)
 ****
 1  2  13  14  15  16  17  18  19  20  21  22  24  25 0
 3-21G
 ****
 27  28  29  32  34  39  40  41  42  43  44  45  46  47  48  49 0
 3-21G
 ****


