%nproc=1
%NoSave
%Mem=1900MB
#P OB98/GEN NMR

erre ene a

0 1
  C     -479.199     388.982    -105.440
  O     -479.817     387.880    -104.779
  P     -481.379     387.976    -104.418
  C     -483.281     386.345    -103.768
  O     -481.872     386.543    -103.879
  C     -483.591     385.161    -102.847
  O     -483.168     383.922    -103.490
  C     -482.869     385.186    -101.486
  O     -483.494     385.864    -100.398
  C     -482.853     383.712    -101.128
  O     -484.104     383.339    -100.518
  C     -482.707     383.008    -102.476
  N     -478.973     379.735    -101.224
  C     -480.235     379.882    -100.765
  N     -481.164     380.782    -101.152
  C     -480.692     381.576    -102.132
  C     -479.423     381.533    -102.699
  C     -478.537     380.555    -102.207
  N     -477.253     380.411    -102.671
  N     -479.300     382.503    -103.673
  C     -480.461     383.135    -103.672
  N     -481.340     382.600    -102.765
  O     -482.247     388.606    -105.452
  O     -481.367     388.853    -103.077
  H     -484.808     383.693    -101.084
  H     -482.144     389.448    -103.077
  H     -480.534     379.194     -99.975
  H     -480.712     383.978    -104.308
  H     -483.328     382.100    -102.545
  H     -482.070     383.461    -100.395
  H     -481.838     385.555    -101.604
  H     -484.680     385.106    -102.678
  H     -483.704     386.159    -104.767
  H     -476.664     379.720    -102.226
  H     -476.890     381.056    -103.359
  H     -483.711     387.286    -103.419
  P     -483.086     387.367     -99.993
  C     -484.679     388.962     -98.673
  O     -483.989     387.724     -98.717
  O     -483.145     388.360    -101.102
  O     -481.620     387.165     -99.357
  H     -481.617     386.683     -98.516
  H     -485.397     388.928     -97.842
  H     -485.228     389.146     -99.602
  H     -483.975     389.782     -98.482
  H     -478.165     388.763    -105.608
  H     -479.283     389.857    -104.830
  H     -479.685     389.153    -106.378

 3  4  5  6  7  8  9  10  11  12  22  25  29  30  31  32 0
 6-311+G(2d,p)
 ****
 33  36  37 0
 6-311+G(2d,p)
 ****
 1  2  13  14  15  16  17  18  19  20  21  23  24  26 0
 3-21G
 ****
 27  28  34  35  38  39  40  41  42  43  44  45  46  47  48 0
 3-21G
 ****


