%nproc=1
%NoSave
%Mem=1900MB
#P OB98/GEN NMR

erre ene a

0 1
  C      -48.624     963.152     122.759
  O      -49.220     964.271     123.390
  H      -49.401     962.421     122.537
  H      -47.890     962.693     123.431
  H      -48.143     963.458     121.824
  P      -48.236     965.459     123.821
  C      -48.978     965.187     126.293
  O      -48.827     966.062     125.189
  C      -49.516     965.942     127.501
  O      -48.563     966.938     127.951
  C      -50.828     966.678     127.267
  O      -51.934     965.801     127.401
  C      -50.785     967.729     128.358
  O      -51.192     967.193     129.633
  C      -49.300     968.110     128.382
  N      -49.002     973.152     128.182
  C      -49.321     972.323     129.229
  N      -49.684     972.927     130.389
  N      -49.322     971.013     129.151
  C      -48.988     970.550     127.920
  C      -48.628     971.276     126.809
  C      -48.606     972.715     126.912
  O      -48.261     973.504     126.041
  N      -48.331     970.449     125.757
  C      -48.544     969.235     126.220
  N      -48.963     969.242     127.532
  O      -48.535     966.610     122.753
  O      -46.779     965.107     123.856
  H      -50.751     966.336     129.784
  H      -47.723     967.130     122.602
  H      -49.008     974.150     128.297
  H      -48.420     968.314     125.662
  H      -48.942     968.357     129.390
  H      -51.456     968.562     128.152
  H      -50.016     973.877     130.407
  H      -50.827     967.170     126.288
  H      -49.936     972.325     131.164
  H      -49.625     965.215     128.325
  H      -48.009     964.745     126.539
  H      -49.680     964.380     126.010
  P      -52.611     965.248     126.044
  C      -54.914     966.103     126.907
  O      -54.168     965.015     126.384
  O      -52.037     963.756     125.929
  O      -52.322     966.056     124.819
  H      -52.164     963.421     125.019
  H      -55.923     965.793     127.080
  H      -54.904     966.912     126.206
  H      -54.477     966.425     127.829

 6  7  8  9  10  11  12  13  14  15  26  29  33  34 0
 6-311+G(2d,p)
 ****
 36  38  39  40  41 0
 6-311+G(2d,p)
 ****
 1  2  3  4  5  16  17  18  19  20  21  22  23  24  25 0
 3-21G
 ****
 27  28  30  31  32  35  37  42  43  44  45  46  47 0
 3-21G
 ****
 48  49 0
 3-21G
 ****


