%nproc=1
%NoSave
%Mem=1900MB
#P OB98/GEN NMR

erre ene a

0 1
  C     -178.440      62.785    -141.559
  O     -177.369      63.596    -141.113
  H     -179.010      63.336    -142.312
  H     -179.100      62.549    -140.720
  H     -178.061      61.862    -142.007
  P     -176.279      62.884    -140.179
  C     -174.679      62.410    -142.203
  O     -175.427      61.888    -141.112
  C     -173.268      61.830    -142.193
  O     -173.287      60.425    -142.510
  C     -172.342      62.422    -143.245
  O     -171.939      63.738    -142.934
  C     -171.202      61.415    -143.216
  O     -170.264      61.706    -142.173
  C     -171.944      60.086    -142.929
  N     -171.929      59.203    -144.081
  C     -170.680      58.650    -144.398
  O     -169.696      58.911    -143.705
  N     -170.576      57.854    -145.508
  C     -171.616      57.649    -146.253
  N     -171.439      56.877    -147.358
  C     -172.951      58.213    -145.957
  C     -173.034      58.974    -144.866
  O     -177.173      61.889    -139.302
  O     -175.438      63.818    -139.376
  H     -170.000      62.642    -142.293
  H     -177.789      61.352    -139.827
  H     -173.790      58.000    -146.602
  H     -173.974      59.428    -144.574
  H     -171.476      59.559    -142.087
  H     -170.643      61.413    -144.154
  H     -172.816      62.373    -144.233
  H     -172.855      61.954    -141.183
  H     -170.497      56.556    -147.555
  H     -174.643      63.502    -142.157
  H     -172.155      56.714    -148.051
  H     -175.199      62.132    -143.125
  P     -171.372      64.722    -144.062
  C     -173.726      65.767    -144.157
  O     -172.642      65.234    -144.909
  O     -170.263      64.173    -144.892
  O     -170.976      66.034    -143.233
  H     -171.712      66.451    -142.750
  H     -174.506      66.072    -144.823
  H     -173.388      66.611    -143.593
  H     -174.099      65.019    -143.490

 6  7  8  9  10  11  12  13  14  15  16  26  30  31  32  33  35 0
 6-311+G(2d,p)
 ****
 37  38 0
 6-311+G(2d,p)
 ****
 1  2  3  4  5  17  18  19  20  21  22  23  24  25 0
 3-21G
 ****
 27  28  29  34  36  39  40  41  42  43  44  45  46 0
 3-21G
 ****


