%nproc=1
%NoSave
%Mem=1900MB
#P OB98/GEN NMR

erre ene a

0 1
  C     -108.055     157.877     129.744
  O     -108.145     157.292     128.438
  P     -108.050     155.712     128.183
  C     -109.991     155.552     126.491
  O     -108.593     155.379     126.714
  C     -110.398     155.114     125.081
  O     -109.810     155.980     124.092
  C     -109.960     153.706     124.698
  O     -110.779     152.729     125.316
  C     -110.073     153.767     123.178
  O     -111.428     153.550     122.751
  C     -109.633     155.215     122.884
  N     -108.261     155.293     122.397
  C     -108.055     156.022     121.223
  O     -109.011     156.512     120.616
  N     -106.773     156.156     120.749
  C     -105.796     155.553     121.353
  N     -104.547     155.728     120.842
  C     -105.983     154.701     122.541
  C     -107.228     154.620     123.006
  O     -108.669     154.884     129.264
  O     -106.481     155.402     128.077
  H     -111.591     152.590     122.825
  H     -106.311     154.500     128.406
  H     -105.147     154.194     122.998
  H     -107.452     154.022     123.881
  H     -110.295     155.671     122.137
  H     -109.456     153.015     122.680
  H     -108.910     153.556     124.977
  H     -111.490     155.208     125.004
  H     -104.452     156.324     120.029
  H     -110.229     156.613     126.623
  H     -103.720     155.306     121.235
  H     -110.541     154.974     127.241
  P     -110.289     152.020     126.664
  C     -112.711     151.543     127.373
  O     -111.433     150.992     127.113
  O     -109.802     152.937     127.738
  O     -109.116     151.043     126.174
  H     -108.456     150.958     126.887
  H     -113.461     150.755     127.268
  H     -112.941     152.351     126.669
  H     -112.740     151.930     128.394
  H     -108.145     158.940     129.665
  H     -107.110     157.630     130.181
  H     -108.843     157.497     130.360

 3  4  5  6  7  8  9  10  11  12  13  23  27  28  29  30  32 0
 6-311+G(2d,p)
 ****
 34  35 0
 6-311+G(2d,p)
 ****
 1  2  14  15  16  17  18  19  20  21  22  24  25  26 0
 3-21G
 ****
 31  33  36  37  38  39  40  41  42  43  44  45  46 0
 3-21G
 ****


