%nproc=1
%NoSave
%Mem=1900MB
#P OB98/GEN NMR

erre ene a

0 1
  C      572.251     659.125     237.086
  O      572.859     659.560     238.286
  H      572.812     659.544     236.244
  H      571.220     659.491     237.034
  H      572.268     658.039     237.014
  P      572.295     659.006     239.681
  C      572.118     656.444     239.812
  O      572.976     657.575     239.922
  C      572.852     655.174     240.229
  O      573.886     654.881     239.258
  C      573.516     655.268     241.610
  O      573.390     654.006     242.260
  C      574.975     655.523     241.275
  O      575.853     655.072     242.309
  C      575.142     654.765     239.958
  N      579.613     653.672     237.880
  C      578.724     652.864     238.555
  N      579.087     651.573     238.739
  N      577.576     653.277     239.032
  C      577.339     654.588     238.767
  C      578.135     655.497     238.111
  C      579.411     655.026     237.602
  O      580.243     655.696     237.006
  N      577.550     656.739     238.068
  C      576.402     656.589     238.708
  N      576.233     655.303     239.160
  O      570.804     659.016     239.820
  O      572.990     659.939     240.781
  H      575.567     654.161     242.552
  H      572.380     660.633     241.086
  H      580.488     653.308     237.548
  H      575.675     657.361     238.870
  H      575.350     653.703     240.118
  H      575.142     656.603     241.130
  H      579.946     651.174     238.393
  H      573.090     656.057     242.234
  H      578.442     650.955     239.211
  H      572.140     654.334     240.199
  H      571.793     656.361     238.773
  H      571.239     656.596     240.446
  P      572.513     653.915     243.604
  C      570.218     654.943     244.174
  O      570.978     654.216     243.214
  O      573.041     654.673     244.770
  O      572.485     652.332     243.903
  H      572.409     652.202     244.870
  H      569.222     655.082     243.809
  H      570.673     655.897     244.341
  H      570.188     654.396     245.093

 6  7  8  9  10  11  12  13  14  15  26  29  33  34 0
 6-311+G(2d,p)
 ****
 36  38  39  40  41 0
 6-311+G(2d,p)
 ****
 1  2  3  4  5  16  17  18  19  20  21  22  23  24  25 0
 3-21G
 ****
 27  28  30  31  32  35  37  42  43  44  45  46  47 0
 3-21G
 ****
 48  49 0
 3-21G
 ****


