%nproc=1
%NoSave
%Mem=1900MB
#P OB98/GEN NMR

erre ene a

0 1
  C       26.457     -92.351      -8.495
  O       25.041     -92.352      -8.713
  P       24.370     -92.091     -10.148
  C       22.151     -93.134      -9.349
  O       22.774     -92.027      -9.985
  C       22.056     -92.941      -7.832
  O       21.291     -91.735      -7.527
  C       21.388     -94.108      -7.083
  O       22.103     -94.269      -5.854
  C       19.986     -93.568      -6.846
  O       19.278     -94.249      -5.827
  C       20.320     -92.107      -6.527
  N       19.187     -91.188      -6.539
  C       18.375     -91.140      -5.399
  O       18.570     -91.885      -4.441
  N       17.330     -90.247      -5.376
  C       17.107     -89.479      -6.394
  N       16.063     -88.613      -6.301
  C       17.923     -89.509      -7.620
  C       18.935     -90.375      -7.622
  O       24.818     -93.051     -11.201
  O       24.775     -90.594     -10.543
  H       24.919     -90.544     -11.506
  H       19.705     -94.044      -4.976
  H       17.707     -88.846      -8.444
  H       19.601     -90.439      -8.477
  H       20.824     -92.054      -5.555
  H       19.412     -93.663      -7.772
  H       21.414     -95.053      -7.633
  H       23.070     -92.774      -7.448
  H       15.531     -88.613      -5.438
  H       22.744     -94.030      -9.554
  H       15.805     -87.964      -7.030
  H       21.153     -93.278      -9.779
  P       23.090     -95.520      -5.669
  C       24.505     -94.759      -3.619
  O       23.485     -95.600      -4.118
  O       24.447     -94.968      -6.325
  O       22.677     -96.792      -6.334
  H       24.980     -95.722      -6.637
  H       24.174     -94.334      -2.668
  H       24.741     -93.941      -4.304
  H       25.405     -95.353      -3.448
  H       26.659     -92.547      -7.463
  H       26.858     -91.396      -8.761
  H       26.911     -93.109      -9.098

 3  4  5  6  7  8  9  10  11  12  13  24  27  28  29  30  32 0
 6-311+G(2d,p)
 ****
 34  35 0
 6-311+G(2d,p)
 ****
 1  2  14  15  16  17  18  19  20  21  22  23  25  26 0
 3-21G
 ****
 31  33  36  37  38  39  40  41  42  43  44  45  46 0
 3-21G
 ****


