%nproc=1
%NoSave
%Mem=1900MB
#P OB98/GEN NMR

erre ene a

0 1
  C     -119.647     330.419     789.858
  O     -119.688     329.429     790.877
  P     -120.046     329.911     792.372
  C     -118.757     330.012     794.665
  O     -118.720     329.786     793.257
  C     -117.354     329.908     795.280
  O     -116.892     328.545     795.137
  C     -116.291     330.769     794.624
  O     -115.185     330.909     795.532
  C     -115.865     329.911     793.446
  O     -114.599     330.312     792.930
  C     -115.928     328.487     794.051
  N     -116.321     327.441     793.074
  C     -115.313     326.788     792.366
  O     -114.108     327.011     792.489
  N     -115.727     325.857     791.444
  C     -117.042     325.503     791.195
  O     -117.361     324.722     790.309
  C     -118.043     326.122     792.073
  C     -117.646     327.053     792.938
  O     -121.006     328.764     792.927
  O     -120.695     331.261     792.418
  H     -113.954     330.259     793.689
  H     -121.920     329.062     792.942
  H     -115.024     325.420     790.881
  H     -119.076     325.822     791.967
  H     -118.383     327.535     793.586
  H     -114.947     328.188     794.468
  H     -116.599     330.006     792.641
  H     -116.636     331.763     794.296
  H     -117.424     330.124     796.355
  H     -119.439     329.281     795.135
  H     -119.177     331.010     794.864
  P     -114.757     332.389     795.968
  C     -113.173     334.083     794.839
  O     -114.201     333.120     794.642
  O     -113.876     332.483     797.179
  O     -116.170     333.127     796.215
  H     -116.031     333.920     796.759
  H     -112.553     334.100     793.939
  H     -112.531     333.824     795.704
  H     -113.616     335.068     794.997
  H     -119.399     329.959     788.924
  H     -118.907     331.152     790.103
  H     -120.604     330.891     789.780

 3  4  5  6  7  8  9  10  11  12  13  23  28  29  30  31  32 0
 6-311+G(2d,p)
 ****
 33  34 0
 6-311+G(2d,p)
 ****
 1  2  14  15  16  17  18  19  20  21  22  24  25  26  27 0
 3-21G
 ****
 35  36  37  38  39  40  41  42  43  44  45 0
 3-21G
 ****


