%nproc=1
%NoSave
%Mem=1900MB
#P OB98/GEN NMR

erre ene a

0 1
  C      183.197      33.394      32.314
  O      183.564      32.031      32.482
  P      183.631      31.097      31.180
  C      181.355      30.000      31.762
  O      182.118      30.714      30.800
  C      180.075      29.437      31.145
  O      179.280      30.533      30.621
  C      180.305      28.453      29.991
  O      179.247      27.490      30.038
  C      180.131      29.322      28.759
  O      179.831      28.557      27.596
  C      179.008      30.243      29.232
  N      176.579      34.704      28.655
  C      176.412      33.700      29.541
  N      177.100      32.543      29.632
  C      178.043      32.475      28.678
  C      178.306      33.405      27.686
  C      177.525      34.574      27.696
  N      177.700      35.603      26.801
  N      179.333      32.970      26.873
  C      179.683      31.799      27.365
  N      178.949      31.470      28.468
  O      184.229      29.731      31.760
  O      184.462      31.623      30.061
  H      179.794      29.164      26.833
  H      185.132      29.589      31.414
  H      175.627      33.848      30.279
  H      180.453      31.156      26.960
  H      178.025      29.759      29.175
  H      181.052      29.883      28.569
  H      181.277      27.951      30.019
  H      179.488      28.962      31.941
  H      181.081      30.685      32.570
  H      177.197      36.462      26.958
  H      178.521      35.599      26.206
  H      181.960      29.192      32.183
  P      179.617      25.983      29.630
  C      178.094      25.992      27.531
  O      179.404      25.869      28.048
  O      178.408      25.127      30.242
  O      180.937      25.518      30.150
  H      178.709      24.223      30.446
  H      178.146      26.469      26.548
  H      177.452      26.593      28.183
  H      177.657      24.995      27.420
  H      183.197      33.883      33.266
  H      182.219      33.450      31.884
  H      183.899      33.875      31.666

 3  4  5  6  7  8  9  10  11  12  22  25  29  30  31  32 0
 6-311+G(2d,p)
 ****
 33  36  37 0
 6-311+G(2d,p)
 ****
 1  2  13  14  15  16  17  18  19  20  21  23  24  26 0
 3-21G
 ****
 27  28  34  35  38  39  40  41  42  43  44  45  46  47  48 0
 3-21G
 ****


