%nproc=1
%NoSave
%Mem=1900MB
#P OB98/GEN NMR

erre ene a

0 1
  C     -173.920    -342.778      78.473
  O     -174.244    -343.844      79.337
  H     -172.971    -343.002      77.977
  H     -173.797    -341.856      79.049
  H     -174.693    -342.639      77.709
  P     -175.713    -343.909      79.979
  C     -177.135    -345.212      78.259
  O     -176.370    -345.279      79.456
  C     -177.096    -346.560      77.533
  O     -175.721    -346.812      77.113
  C     -177.547    -347.746      78.414
  O     -178.216    -348.704      77.584
  C     -176.214    -348.300      78.878
  O     -176.322    -349.629      79.322
  C     -175.367    -348.117      77.620
  N     -173.939    -348.231      77.915
  C     -173.487    -349.460      78.380
  O     -174.222    -350.435      78.562
  N     -172.161    -349.532      78.714
  C     -171.287    -348.478      78.730
  O     -170.129    -348.576      79.110
  C     -171.832    -347.187      78.280
  C     -173.110    -347.121      77.891
  O     -176.565    -342.697      79.786
  O     -175.455    -344.229      81.530
  H     -176.629    -350.199      78.589
  H     -176.230    -343.969      82.064
  H     -171.815    -350.418      79.044
  H     -171.172    -346.327      78.294
  H     -173.549    -346.185      77.569
  H     -175.637    -348.855      76.855
  H     -175.826    -347.696      79.709
  H     -178.200    -347.445      79.237
  H     -177.700    -346.492      76.620
  H     -176.705    -344.428      77.618
  H     -178.168    -344.945      78.505
  P     -179.615    -349.368      78.006
  C     -181.198    -347.358      77.747
  O     -180.841    -348.645      77.248
  O     -179.808    -349.498      79.486
  O     -179.577    -350.827      77.339
  H     -179.872    -351.490      77.991
  H     -182.017    -346.969      77.178
  H     -180.360    -346.698      77.663
  H     -181.485    -347.441      78.774

 6  7  8  9  10  11  12  13  14  15  16  26  31  32  33  34  35 0
 6-311+G(2d,p)
 ****
 36  37 0
 6-311+G(2d,p)
 ****
 1  2  3  4  5  17  18  19  20  21  22  23  24  25 0
 3-21G
 ****
 27  28  29  30  38  39  40  41  42  43  44  45 0
 3-21G
 ****


