%nproc=1
%NoSave
%Mem=1900MB
#P OB98/GEN NMR

erre ene a

0 1
  C      530.893     608.250     389.082
  O      531.937     607.320     388.852
  P      532.695     607.390     387.438
  C      532.608     604.782     387.372
  O      532.398     606.006     386.677
  C      531.658     603.711     386.847
  O      530.316     603.981     387.311
  C      531.562     603.629     385.329
  O      532.702     602.980     384.769
  C      530.254     602.850     385.178
  O      530.477     601.455     385.400
  C      529.403     603.438     386.312
  N      524.832     605.669     386.975
  C      525.407     604.605     387.562
  N      526.616     604.051     387.329
  C      527.253     604.748     386.350
  C      526.785     605.832     385.645
  C      525.518     606.313     385.994
  N      524.923     607.406     385.386
  N      527.717     606.254     384.723
  C      528.743     605.438     384.869
  N      528.511     604.506     385.853
  O      534.248     607.262     387.850
  O      532.444     608.634     386.635
  H      529.678     600.988     385.083
  H      534.818     607.782     387.258
  H      524.820     604.109     388.352
  H      529.659     605.468     384.300
  H      528.775     602.688     386.805
  H      529.811     602.963     384.179
  H      531.453     604.643     384.894
  H      531.970     602.740     387.273
  H      532.431     604.934     388.430
  H      523.965     607.578     385.584
  H      525.386     607.797     384.569
  H      533.657     604.482     387.239
  P      533.477     603.730     383.586
  C      534.580     601.453     383.181
  O      533.896     602.540     382.597
  O      534.865     604.118     384.286
  O      532.718     604.864     382.957
  H      535.251     603.358     384.760
  H      534.774     600.683     382.415
  H      533.987     600.996     383.991
  H      535.547     601.779     383.583
  H      530.481     608.090     390.056
  H      530.129     608.118     388.345
  H      531.281     609.245     389.019

 3  4  5  6  7  8  9  10  11  12  22  25  29  30  31  32 0
 6-311+G(2d,p)
 ****
 33  36  37 0
 6-311+G(2d,p)
 ****
 1  2  13  14  15  16  17  18  19  20  21  23  24  26 0
 3-21G
 ****
 27  28  34  35  38  39  40  41  42  43  44  45  46  47  48 0
 3-21G
 ****


