%nproc=1
%NoSave
%Mem=1900MB
#P OB98/GEN NMR

erre ene a

0 1
  C       75.865     -62.640      18.007
  O       75.406     -61.861      19.094
  P       73.865     -61.436      19.231
  C       74.258     -59.381      17.737
  O       73.529     -60.586      17.911
  C       73.521     -58.413      16.809
  O       73.350     -59.029      15.502
  C       72.133     -57.984      17.304
  O       71.949     -56.634      16.866
  C       71.211     -58.919      16.544
  O       69.872     -58.448      16.493
  C       71.938     -59.008      15.196
  N       71.523     -60.175      14.427
  C       71.361     -59.996      13.050
  O       71.490     -58.876      12.551
  N       71.002     -61.073      12.280
  C       70.728     -62.204      12.851
  N       70.382     -63.237      12.037
  C       70.763     -62.402      14.311
  C       71.179     -61.361      15.031
  O       73.502     -60.773      20.515
  O       73.073     -62.803      18.972
  H       69.562     -58.298      17.413
  H       73.108     -63.379      19.777
  H       70.472     -63.346      14.746
  H       71.240     -61.411      16.109
  H       71.746     -58.110      14.594
  H       71.200     -59.902      17.033
  H       72.011     -58.061      18.386
  H       74.156     -57.531      16.669
  H       70.384     -63.062      11.038
  H       75.223     -59.631      17.288
  H       70.231     -64.178      12.370
  H       74.450     -58.916      18.709
  P       71.406     -55.502      17.861
  C       69.079     -55.393      16.799
  O       69.820     -55.694      17.967
  O       71.850     -54.111      17.541
  O       71.925     -55.962      19.307
  H       71.861     -55.212      19.929
  H       68.077     -55.820      16.892
  H       69.562     -55.811      15.910
  H       68.995     -54.308      16.688
  H       76.917     -62.809      18.108
  H       75.673     -62.122      17.091
  H       75.352     -63.579      18.000

 3  4  5  6  7  8  9  10  11  12  13  23  27  28  29  30  32 0
 6-311+G(2d,p)
 ****
 34  35 0
 6-311+G(2d,p)
 ****
 1  2  14  15  16  17  18  19  20  21  22  24  25  26 0
 3-21G
 ****
 31  33  36  37  38  39  40  41  42  43  44  45  46 0
 3-21G
 ****


