%nproc=1
%NoSave
%Mem=1900MB
#P OB98/GEN NMR

erre ene a

0 1
  C       20.174     140.522    -136.205
  O       20.925     139.590    -135.425
  P       22.066     138.771    -136.203
  C       24.014     138.649    -134.493
  O       23.490     139.270    -135.658
  C       25.455     139.097    -134.242
  O       26.345     138.701    -135.302
  C       25.603     140.607    -134.115
  O       25.214     141.027    -132.819
  C       27.090     140.796    -134.385
  O       27.871     140.581    -133.192
  C       27.385     139.704    -135.426
  N       29.976     139.413    -139.772
  C       30.283     138.908    -138.524
  N       31.429     138.204    -138.426
  N       29.530     139.076    -137.468
  C       28.412     139.799    -137.714
  C       27.988     140.327    -138.911
  C       28.830     140.137    -140.072
  O       28.591     140.546    -141.202
  N       26.768     140.946    -138.782
  C       26.524     140.899    -137.485
  N       27.457     140.158    -136.803
  O       21.992     139.358    -137.690
  O       21.855     137.294    -136.184
  H       28.777     140.905    -133.343
  H       21.631     138.682    -138.294
  H       30.595     139.262    -140.550
  H       25.678     141.358    -136.997
  H       28.340     139.202    -135.221
  H       27.316     141.812    -134.721
  H       32.055     138.034    -139.198
  H       25.013     141.111    -134.890
  H       31.668     137.818    -137.521
  H       25.792     138.613    -133.317
  H       23.978     137.563    -134.599
  H       23.372     138.902    -133.642
  P       24.747     142.548    -132.632
  C       22.207     142.304    -132.164
  O       23.218     142.641    -133.092
  O       25.547     143.316    -133.788
  O       25.050     143.128    -131.291
  H       25.920     144.144    -133.432
  H       21.309     142.882    -132.396
  H       22.512     142.520    -131.136
  H       21.976     141.239    -132.255
  H       19.449     141.004    -135.584
  H       19.676     140.004    -136.998
  H       20.835     141.256    -136.617

 3  4  5  6  7  8  9  10  11  12  23  26  30  31 0
 6-311+G(2d,p)
 ****
 33  35  36  37  38 0
 6-311+G(2d,p)
 ****
 1  2  13  14  15  16  17  18  19  20  21  22  24  25 0
 3-21G
 ****
 27  28  29  32  34  39  40  41  42  43  44  45  46  47  48  49 0
 3-21G
 ****


