%nproc=1
%NoSave
%Mem=1900MB
#P OB98/GEN NMR

erre ene a

0 1
  C      514.042     348.916    -136.090
  O      514.836     349.045    -134.926
  H      513.653     347.895    -136.171
  H      513.197     349.610    -136.026
  H      514.635     349.158    -136.979
  P      516.110     348.081    -134.807
  C      517.577     350.001    -133.825
  O      517.008     348.709    -133.631
  C      517.578     350.754    -132.503
  O      516.226     351.070    -132.104
  C      518.188     349.967    -131.343
  O      519.604     350.028    -131.315
  C      517.582     350.700    -130.152
  O      518.276     351.942    -129.943
  C      516.148     350.964    -130.652
  N      514.075     348.297    -126.799
  C      514.947     349.333    -126.815
  N      515.438     349.998    -127.882
  C      514.915     349.510    -129.020
  C      514.023     348.464    -129.157
  C      513.593     347.843    -127.976
  N      512.731     346.760    -127.958
  N      513.741     348.238    -130.495
  C      514.451     349.132    -131.150
  N      515.208     349.910    -130.305
  O      516.969     348.412    -136.123
  O      515.821     346.627    -134.648
  H      519.216     351.721    -129.805
  H      517.650     347.725    -136.270
  H      515.305     349.667    -125.841
  H      514.470     349.259    -132.229
  H      515.738     351.905    -130.277
  H      517.650     350.125    -129.223
  H      517.832     348.928    -131.338
  H      518.113     351.708    -132.643
  H      516.979     350.548    -134.567
  H      512.600     346.288    -127.075
  H      512.483     346.325    -128.835
  H      518.604     349.889    -134.202
  P      520.407     348.652    -131.121
  C      522.585     349.032    -132.484
  O      521.966     349.011    -131.205
  O      520.131     347.873    -132.501
  O      519.983     347.845    -129.932
  H      520.098     346.907    -132.358
  H      523.619     349.286    -132.376
  H      522.102     349.759    -133.102
  H      522.501     348.066    -132.937

 6  7  8  9  10  11  12  13  14  15  25  28  32  33  34  35 0
 6-311+G(2d,p)
 ****
 36  39  40 0
 6-311+G(2d,p)
 ****
 1  2  3  4  5  16  17  18  19  20  21  22  23  24 0
 3-21G
 ****
 26  27  29  30  31  37  38  41  42  43  44  45  46  47 0
 3-21G
 ****
 48 0
 3-21G
 ****


