%nproc=1
%NoSave
%Mem=1900MB
#P OB98/GEN NMR

erre ene a

0 1
  C      -65.722    -360.211     105.256
  O      -65.798    -358.802     105.348
  H      -65.901    -360.666     106.237
  H      -66.487    -360.560     104.560
  H      -64.739    -360.510     104.882
  P      -64.818    -358.104     106.410
  C      -67.002    -358.062     107.807
  O      -65.583    -358.132     107.821
  C      -67.589    -359.056     108.802
  O      -67.052    -360.375     108.558
  C      -67.278    -358.761     110.263
  O      -68.113    -357.735     110.787
  C      -67.581    -360.110     110.896
  O      -69.002    -360.247     111.088
  C      -67.099    -361.096     109.818
  N      -64.528    -365.146     111.649
  C      -65.855    -364.898     111.525
  N      -66.464    -363.798     111.041
  C      -65.561    -362.888     110.643
  C      -64.177    -362.995     110.705
  C      -63.660    -364.187     111.248
  N      -62.310    -364.420     111.385
  N      -63.575    -361.868     110.195
  C      -64.571    -361.090     109.822
  N      -65.791    -361.660     110.081
  O      -64.864    -356.554     105.997
  O      -63.420    -358.623     106.427
  H      -69.261    -359.578     111.752
  H      -63.981    -356.163     106.144
  H      -66.511    -365.699     111.856
  H      -64.458    -360.117     109.364
  H      -67.808    -361.922     109.688
  H      -67.104    -360.246     111.868
  H      -66.217    -358.523     110.402
  H      -68.674    -359.100     108.633
  H      -67.366    -358.297     106.802
  H      -61.999    -365.355     111.588
  H      -61.669    -363.696     111.070
  H      -67.308    -357.041     108.064
  P      -67.407    -356.377     111.271
  C      -68.205    -356.938     113.677
  O      -67.112    -356.581     112.834
  O      -68.610    -355.322     111.256
  O      -66.259    -355.926     110.433
  H      -68.255    -354.418     111.141
  H      -67.860    -357.039     114.685
  H      -68.621    -357.867     113.348
  H      -68.954    -356.176     113.631

 6  7  8  9  10  11  12  13  14  15  25  28  32  33  34  35 0
 6-311+G(2d,p)
 ****
 36  39  40 0
 6-311+G(2d,p)
 ****
 1  2  3  4  5  16  17  18  19  20  21  22  23  24 0
 3-21G
 ****
 26  27  29  30  31  37  38  41  42  43  44  45  46  47  48 0
 3-21G
 ****


