%nproc=1
%NoSave
%Mem=1900MB
#P OB98/GEN NMR

erre ene a

0 1
  C     1646.655    -799.522     198.721
  O     1646.697    -799.105     200.092
  P     1647.483    -797.791     200.600
  C     1645.766    -796.912     202.358
  O     1646.388    -796.743     201.104
  C     1644.258    -797.310     202.255
  O     1644.161    -798.589     201.554
  C     1643.663    -797.536     203.635
  O     1643.184    -796.437     204.372
  C     1642.641    -798.671     203.423
  O     1641.321    -798.155     203.213
  C     1643.178    -799.389     202.167
  N     1642.216    -804.362     202.927
  C     1641.338    -803.352     202.721
  N     1640.024    -803.665     202.714
  N     1641.703    -802.101     202.479
  C     1643.058    -801.887     202.604
  C     1644.013    -802.833     202.818
  C     1643.601    -804.241     202.988
  O     1644.351    -805.167     203.163
  N     1645.257    -802.261     202.867
  C     1645.050    -800.991     202.674
  N     1643.658    -800.709     202.508
  O     1648.563    -797.284     199.691
  O     1648.185    -798.300     201.974
  H     1641.049    -797.701     204.030
  H     1649.033    -797.803     202.025
  H     1641.894    -805.315     203.055
  H     1645.812    -800.218     202.642
  H     1642.367    -799.538     201.447
  H     1642.583    -799.300     204.333
  H     1639.684    -804.576     202.993
  H     1644.473    -798.007     204.261
  H     1639.385    -802.875     202.768
  H     1643.706    -796.607     201.632
  H     1645.845    -795.956     202.897
  H     1646.308    -797.641     202.967
  P     1643.813    -795.875     205.743
  C     1644.989    -793.790     204.783
  O     1645.169    -795.065     205.345
  O     1644.374    -797.177     206.482
  O     1642.844    -795.100     206.638
  H     1644.551    -796.974     207.435
  H     1645.906    -793.496     204.286
  H     1644.770    -793.058     205.581
  H     1644.156    -793.787     204.036
  H     1646.075    -800.417     198.638
  H     1647.650    -799.709     198.374
  H     1646.209    -798.751     198.127

 3  4  5  6  7  8  9  10  11  12  23  26  30  31 0
 6-311+G(2d,p)
 ****
 33  35  36  37  38 0
 6-311+G(2d,p)
 ****
 1  2  13  14  15  16  17  18  19  20  21  22  24  25 0
 3-21G
 ****
 27  28  29  32  34  39  40  41  42  43  44  45  46  47  48  49 0
 3-21G
 ****


