%nproc=1
%NoSave
%Mem=1900MB
#P OB98/GEN NMR

erre ene a

0 1
  C        4.554     459.052      74.136
  O        5.778     459.499      74.673
  H        3.875     458.819      74.957
  H        4.722     458.144      73.548
  H        4.091     459.816      73.504
  P        6.776     460.327      73.736
  C        7.981     458.502      72.367
  O        8.067     459.417      73.451
  C        9.363     458.127      71.830
  O       10.018     459.302      71.307
  C       10.280     457.561      72.919
  O       10.155     456.161      73.124
  C       11.663     457.914      72.382
  O       12.166     456.888      71.512
  C       11.418     459.208      71.598
  N       13.958     463.642      71.451
  C       13.906     462.643      70.499
  N       14.654     462.841      69.390
  N       13.198     461.552      70.639
  C       12.584     461.453      71.839
  C       12.583     462.369      72.870
  C       13.308     463.608      72.675
  O       13.373     464.527      73.482
  N       11.883     461.905      73.956
  C       11.537     460.677      73.614
  N       11.872     460.389      72.310
  O        7.357     461.455      74.719
  O        6.152     460.953      72.526
  H       12.265     456.069      72.038
  H        7.555     462.262      74.208
  H       14.500     464.472      71.275
  H       11.008     459.976      74.251
  H       11.943     459.198      70.635
  H       12.383     458.017      73.200
  H       15.280     463.618      69.269
  H       10.135     458.092      73.866
  H       14.791     462.051      68.755
  H        9.247     457.423      70.997
  H        7.400     458.999      71.587
  H        7.428     457.606      72.666
  P       10.678     455.478      74.472
  C       13.226     455.543      73.836
  O       12.082     454.787      74.173
  O        9.683     454.241      74.656
  O       10.698     456.367      75.674
  H        8.980     454.458      75.296
  H       14.054     454.885      73.677
  H       13.455     456.218      74.634
  H       13.036     456.099      72.942

 6  7  8  9  10  11  12  13  14  15  26  29  33  34 0
 6-311+G(2d,p)
 ****
 36  38  39  40  41 0
 6-311+G(2d,p)
 ****
 1  2  3  4  5  16  17  18  19  20  21  22  23  24  25 0
 3-21G
 ****
 27  28  30  31  32  35  37  42  43  44  45  46  47 0
 3-21G
 ****
 48  49 0
 3-21G
 ****


