%nproc=1
%NoSave
%Mem=1900MB
#P OB98/GEN NMR

erre ene a

0 1
  C      256.227    -263.039     460.546
  O      256.249    -262.396     459.287
  H      255.441    -263.802     460.536
  H      256.011    -262.320     461.342
  H      257.190    -263.527     460.736
  P      257.270    -261.160     459.137
  C      255.267    -259.495     459.198
  O      256.480    -259.928     459.800
  C      255.421    -258.051     458.712
  O      254.192    -257.568     458.138
  C      255.780    -257.054     459.817
  O      257.152    -257.099     460.163
  C      255.405    -255.752     459.135
  O      256.423    -255.401     458.171
  C      254.085    -256.140     458.433
  N      252.899    -255.872     459.244
  C      252.400    -254.562     459.202
  O      252.955    -253.695     458.523
  N      251.296    -254.247     459.968
  C      250.738    -255.156     460.700
  N      249.655    -254.793     461.448
  C      251.217    -256.547     460.761
  C      252.294    -256.835     460.022
  O      257.223    -260.814     457.577
  O      258.648    -261.384     459.676
  H      257.234    -255.213     458.679
  H      257.729    -259.984     457.401
  H      250.726    -257.280     461.395
  H      252.703    -257.837     460.018
  H      253.985    -255.625     457.471
  H      255.325    -254.912     459.834
  H      255.135    -257.187     460.698
  H      256.182    -258.046     457.911
  H      249.386    -253.819     461.438
  H      254.467    -259.554     459.942
  H      249.272    -255.374     462.181
  H      255.016    -260.137     458.343
  P      257.513    -257.454     461.698
  C      258.535    -255.098     462.127
  O      257.556    -256.065     462.508
  O      259.054    -257.877     461.608
  O      256.662    -258.526     462.315
  H      259.245    -258.626     462.214
  H      258.443    -254.233     462.750
  H      258.383    -254.820     461.105
  H      259.513    -255.517     462.241

 6  7  8  9  10  11  12  13  14  15  16  26  30  31  32  33  35 0
 6-311+G(2d,p)
 ****
 37  38 0
 6-311+G(2d,p)
 ****
 1  2  3  4  5  17  18  19  20  21  22  23  24  25 0
 3-21G
 ****
 27  28  29  34  36  39  40  41  42  43  44  45  46 0
 3-21G
 ****


