%nproc=1
%NoSave
%Mem=1900MB
#P OB98/GEN NMR

erre ene a

0 1
  C      229.166    -191.110     333.878
  O      230.332    -190.609     333.249
  H      228.326    -191.010     333.187
  H      228.949    -190.525     334.779
  H      229.293    -192.165     334.137
  P      231.721    -190.829     334.033
  C      231.328    -188.696     335.512
  O      231.534    -190.098     335.447
  C      230.572    -188.326     336.792
  O      230.719    -186.902     337.020
  C      229.085    -188.641     336.739
  O      228.666    -189.078     338.037
  C      228.442    -187.296     336.421
  O      227.079    -187.239     336.850
  C      229.399    -186.326     337.130
  N      229.351    -184.981     336.546
  C      228.874    -183.959     337.369
  O      228.493    -184.207     338.514
  N      228.793    -182.686     336.865
  C      229.098    -182.461     335.624
  N      228.974    -181.184     335.174
  C      229.555    -183.524     334.703
  C      229.667    -184.744     335.229
  O      232.704    -189.858     333.223
  O      232.169    -192.251     334.097
  H      227.067    -187.354     337.827
  H      232.301    -189.003     332.986
  H      229.777    -183.294     333.668
  H      230.006    -185.580     334.627
  H      229.157    -186.251     338.194
  H      228.459    -187.128     335.337
  H      228.820    -189.390     335.998
  H      231.062    -188.826     337.637
  H      228.641    -180.490     335.833
  H      230.758    -188.356     334.643
  H      229.134    -180.910     334.218
  H      232.308    -188.210     335.495
  P      228.418    -190.643     338.290
  C      225.896    -190.815     337.780
  O      227.211    -191.141     337.353
  O      228.325    -191.061     339.721
  O      229.695    -191.326     337.591
  H      229.980    -192.077     338.143
  H      225.187    -191.199     337.077
  H      225.795    -189.752     337.844
  H      225.715    -191.248     338.741

 6  7  8  9  10  11  12  13  14  15  16  26  30  31  32  33  35 0
 6-311+G(2d,p)
 ****
 37  38 0
 6-311+G(2d,p)
 ****
 1  2  3  4  5  17  18  19  20  21  22  23  24  25 0
 3-21G
 ****
 27  28  29  34  36  39  40  41  42  43  44  45  46 0
 3-21G
 ****


