%nproc=1
%NoSave
%Mem=1900MB
#P OB98/GEN NMR

erre ene a

0 1
  C      154.635      61.836      66.665
  O      155.614      60.822      66.596
  P      157.136      61.130      66.994
  C      158.920      62.785      66.152
  O      157.718      62.085      65.842
  C      159.721      63.041      64.880
  O      160.025      61.798      64.195
  C      158.986      63.871      63.836
  O      158.703      65.217      64.160
  C      159.837      63.620      62.601
  O      160.998      64.449      62.591
  C      160.233      62.133      62.799
  N      159.485      61.246      61.911
  C      160.185      60.746      60.819
  O      161.363      61.013      60.583
  N      159.473      59.939      59.971
  C      158.149      59.631      60.080
  O      157.561      58.937      59.259
  C      157.458      60.202      61.246
  C      158.144      60.972      62.096
  O      157.972      59.928      67.284
  O      156.996      62.139      68.231
  H      160.703      65.364      62.415
  H      156.523      62.967      68.030
  H      159.958      59.575      59.166
  H      156.406      59.966      61.369
  H      157.653      61.406      62.962
  H      161.304      61.995      62.599
  H      159.284      63.825      61.680
  H      158.010      63.403      63.655
  H      160.675      63.496      65.159
  H      159.520      62.175      66.835
  H      158.675      63.721      66.665
  P      157.250      65.872      64.000
  C      155.381      65.669      62.216
  O      156.765      65.660      62.486
  O      157.057      67.226      64.601
  O      156.331      64.816      64.789
  H      155.577      65.287      65.191
  H      155.230      65.467      61.153
  H      154.950      66.650      62.448
  H      154.869      64.892      62.793
  H      153.689      61.439      66.362
  H      154.909      62.641      66.015
  H      154.566      62.197      67.670

 3  4  5  6  7  8  9  10  11  12  13  23  28  29  30  31  32 0
 6-311+G(2d,p)
 ****
 33  34 0
 6-311+G(2d,p)
 ****
 1  2  14  15  16  17  18  19  20  21  22  24  25  26  27 0
 3-21G
 ****
 35  36  37  38  39  40  41  42  43  44  45 0
 3-21G
 ****


