%nproc=1
%NoSave
%Mem=1900MB
#P OB98/GEN NMR

erre ene a

0 1
  C     -797.280    -894.260    3306.018
  O     -798.359    -894.650    3305.135
  P     -798.513    -896.200    3304.772
  C     -800.948    -896.920    3305.477
  O     -799.548    -896.870    3305.792
  C     -801.665    -895.650    3306.017
  O     -801.143    -894.470    3305.402
  C     -803.160    -895.680    3305.687
  O     -803.891    -896.420    3306.631
  C     -803.501    -894.200    3305.838
  O     -803.644    -893.880    3307.258
  C     -802.259    -893.500    3305.255
  N     -802.795    -889.600    3302.060
  C     -802.664    -889.640    3303.463
  N     -802.665    -888.430    3304.073
  N     -802.545    -890.750    3304.143
  C     -802.531    -891.850    3303.389
  C     -802.641    -891.970    3302.020
  C     -802.826    -890.750    3301.249
  O     -802.941    -890.670    3300.043
  N     -802.584    -893.300    3301.620
  C     -802.423    -893.940    3302.740
  N     -802.385    -893.130    3303.856
  O     -797.110    -896.830    3305.225
  O     -798.820    -896.430    3303.321
  H     -804.061    -892.990    3307.314
  H     -796.874    -897.610    3304.665
  H     -802.907    -888.750    3301.588
  H     -802.303    -895.050    3302.813
  H     -801.944    -892.600    3305.811
  H     -804.431    -893.920    3305.359
  H     -802.742    -887.540    3303.594
  H     -803.341    -896.010    3304.648
  H     -802.539    -888.440    3305.073
  H     -801.514    -895.590    3307.107
  H     -801.361    -897.830    3305.903
  H     -801.011    -897.020    3304.371
  P     -804.050    -898.020    3306.379
  C     -803.475    -899.330    3308.574
  O     -803.000    -898.750    3307.333
  O     -803.410    -898.200    3304.940
  O     -805.442    -898.510    3306.460
  H     -803.877    -898.940    3304.437
  H     -802.669    -899.880    3309.018
  H     -804.326    -900.000    3308.344
  H     -803.804    -898.530    3309.272
  H     -797.306    -893.201    3306.166
  H     -796.343    -894.536    3305.580
  H     -797.393    -894.755    3306.960

 3  4  5  6  7  8  9  10  11  12  23  26  30  31 0
 6-311+G(2d,p)
 ****
 33  35  36  37  38 0
 6-311+G(2d,p)
 ****
 1  2  13  14  15  16  17  18  19  20  21  22  24  25 0
 3-21G
 ****
 27  28  29  32  34  39  40  41  42  43  44  45  46  47  48  49 0
 3-21G
 ****


