%nproc=1
%NoSave
%Mem=1900MB
#P OB98/GEN NMR

erre ene a

0 1
  C     -312.942     235.241     178.925
  O     -312.958     235.932     180.161
  P     -311.583     235.995     180.990
  C     -312.818     234.793     182.941
  O     -311.663     234.855     182.111
  C     -312.751     233.565     183.846
  O     -312.844     232.365     183.055
  C     -311.458     233.431     184.640
  O     -311.434     234.331     185.735
  C     -311.522     231.957     185.027
  O     -312.417     231.774     186.137
  C     -312.118     231.319     183.757
  N     -309.316     227.176     182.666
  C     -310.219     227.422     183.643
  N     -310.906     228.556     183.882
  C     -310.591     229.503     182.979
  C     -309.677     229.405     181.947
  C     -309.022     228.173     181.800
  N     -308.095     227.924     180.806
  N     -309.599     230.585     181.242
  C     -310.465     231.382     181.832
  N     -311.102     230.770     182.880
  O     -311.721     237.352     181.825
  O     -310.344     235.977     180.149
  H     -312.528     230.809     186.261
  H     -310.851     237.782     181.934
  H     -310.416     226.595     184.323
  H     -310.672     232.404     181.538
  H     -312.830     230.518     183.986
  H     -310.548     231.547     185.316
  H     -310.593     233.613     183.995
  H     -313.617     233.597     184.525
  H     -313.716     234.728     182.320
  H     -307.565     227.069     180.864
  H     -307.777     228.710     180.250
  H     -312.878     235.714     183.532
  P     -310.066     234.444     186.566
  C     -311.173     233.448     188.660
  O     -310.188     233.270     187.658
  O     -310.320     235.759     187.434
  O     -308.829     234.434     185.739
  H     -311.190     235.745     187.874
  H     -311.185     232.565     189.303
  H     -312.158     233.571     188.206
  H     -310.928     234.324     189.273
  H     -313.916     235.277     178.483
  H     -312.663     234.221     179.090
  H     -312.235     235.702     178.268

 3  4  5  6  7  8  9  10  11  12  22  25  29  30  31  32 0
 6-311+G(2d,p)
 ****
 33  36  37 0
 6-311+G(2d,p)
 ****
 1  2  13  14  15  16  17  18  19  20  21  23  24  26 0
 3-21G
 ****
 27  28  34  35  38  39  40  41  42  43  44  45  46  47  48 0
 3-21G
 ****


