%nproc=1
%NoSave
%Mem=1900MB
#P OB98/GEN NMR

erre ene a

0 1
  C     -418.401     509.029    -271.014
  O     -417.459     509.463    -271.975
  P     -417.922     509.461    -273.515
  C     -415.558     509.514    -274.602
  O     -416.772     510.206    -274.347
  C     -414.457     510.499    -274.986
  O     -414.769     511.122    -276.249
  C     -414.271     511.652    -274.008
  O     -413.584     511.229    -272.840
  C     -413.499     512.639    -274.874
  O     -412.116     512.258    -274.946
  C     -414.171     512.447    -276.251
  N     -415.096     517.167    -277.998
  C     -413.947     516.477    -277.822
  N     -413.776     515.230    -277.336
  C     -414.962     514.685    -277.012
  C     -416.214     515.274    -277.111
  C     -416.259     516.574    -277.638
  N     -417.433     517.274    -277.809
  N     -417.194     514.415    -276.660
  C     -416.546     513.327    -276.305
  N     -415.200     513.435    -276.515
  O     -419.129     510.509    -273.533
  O     -418.336     508.123    -274.044
  H     -411.673     512.880    -275.560
  H     -419.812     510.245    -274.180
  H     -413.035     516.996    -278.122
  H     -417.010     512.436    -275.903
  H     -413.453     512.484    -277.077
  H     -413.539     513.668    -274.505
  H     -415.241     512.080    -273.729
  H     -413.519     509.943    -275.096
  H     -415.699     508.808    -275.428
  H     -417.364     518.249    -278.052
  H     -418.282     516.887    -277.410
  H     -415.278     508.946    -273.710
  P     -414.095     511.809    -271.436
  C     -411.757     512.503    -270.629
  O     -412.832     511.604    -270.454
  O     -415.102     510.664    -270.954
  O     -414.655     513.187    -271.491
  H     -414.709     509.779    -271.031
  H     -410.993     512.290    -269.873
  H     -412.097     513.538    -270.506
  H     -411.313     512.370    -271.618
  H     -417.965     509.081    -270.038
  H     -418.686     508.019    -271.224
  H     -419.265     509.659    -271.052

 3  4  5  6  7  8  9  10  11  12  22  25  29  30  31  32 0
 6-311+G(2d,p)
 ****
 33  36  37 0
 6-311+G(2d,p)
 ****
 1  2  13  14  15  16  17  18  19  20  21  23  24  26 0
 3-21G
 ****
 27  28  34  35  38  39  40  41  42  43  44  45  46  47  48 0
 3-21G
 ****


