%nproc=1
%NoSave
%Mem=1900MB
#P OB98/GEN NMR

erre ene a

0 1
  C      -43.360      -7.435     -43.223
  O      -44.066      -7.189     -42.019
  P      -45.630      -6.846     -42.104
  C      -45.103      -4.501     -41.041
  O      -45.749      -5.247     -42.057
  C      -45.265      -2.999     -41.299
  O      -44.777      -2.696     -42.636
  C      -46.710      -2.490     -41.211
  O      -46.661      -1.166     -40.663
  C      -47.142      -2.450     -42.668
  O      -48.234      -1.572     -42.891
  C      -45.835      -2.015     -43.341
  N      -45.784      -2.329     -44.769
  C      -46.354      -1.419     -45.655
  O      -46.914      -0.381     -45.306
  N      -46.284      -1.758     -46.983
  C      -45.775      -2.917     -47.492
  O      -45.755      -3.178     -48.690
  C      -45.232      -3.862     -46.505
  C      -45.251      -3.525     -45.214
  O      -46.130      -7.317     -40.660
  O      -46.325      -7.492     -43.255
  H      -45.475      -7.156     -39.959
  H      -48.975      -1.862     -42.327
  H      -46.657      -1.096     -47.647
  H      -44.832      -4.801     -46.870
  H      -44.858      -4.205     -44.467
  H      -45.678      -0.940     -43.195
  H      -47.442      -3.455     -42.987
  H      -47.342      -3.128     -40.587
  H      -44.625      -2.458     -40.590
  H      -44.039      -4.748     -41.029
  H      -45.523      -4.777     -40.067
  P      -47.957      -0.621     -39.877
  C      -49.027       0.404     -42.037
  O      -49.141      -0.483     -40.947
  O      -47.519       0.904     -39.632
  O      -48.275      -1.344     -38.610
  H      -47.178       1.332     -40.434
  H      -49.751       0.115     -42.805
  H      -48.026       0.374     -42.474
  H      -49.253       1.423     -41.707
  H      -42.336      -7.647     -42.999
  H      -43.416      -6.571     -43.852
  H      -43.796      -8.272     -43.727

 3  4  5  6  7  8  9  10  11  12  13  24  28  29  30  31  32 0
 6-311+G(2d,p)
 ****
 33  34 0
 6-311+G(2d,p)
 ****
 1  2  14  15  16  17  18  19  20  21  22  23  25  26  27 0
 3-21G
 ****
 35  36  37  38  39  40  41  42  43  44  45 0
 3-21G
 ****


