%nproc=1
%NoSave
%Mem=1900MB
#P OB98/GEN NMR

erre ene a

0 1
  C     -792.621    1099.989     343.693
  O     -791.947    1100.826     342.776
  H     -793.141    1099.209     343.136
  H     -793.355    1100.573     344.261
  H     -791.907    1099.527     344.381
  P     -791.104    1102.044     343.406
  C     -788.759    1100.935     343.090
  O     -789.652    1101.974     342.725
  C     -787.749    1100.660     341.969
  O     -788.455    1100.073     340.834
  C     -787.040    1101.931     341.435
  O     -785.751    1101.552     340.965
  C     -787.935    1102.303     340.283
  O     -787.299    1103.264     339.454
  C     -788.198    1100.930     339.690
  N     -790.132    1098.506     335.639
  C     -789.034    1098.277     336.367
  N     -788.592    1098.956     337.450
  C     -789.421    1099.966     337.757
  C     -790.591    1100.317     337.106
  C     -790.957    1099.545     335.990
  N     -792.065    1099.773     335.214
  N     -791.178    1101.422     337.702
  C     -790.384    1101.712     338.718
  N     -789.314    1100.869     338.777
  O     -790.834    1101.569     344.909
  O     -791.763    1103.381     343.350
  H     -787.698    1103.294     338.566
  H     -791.507    1101.943     345.502
  H     -788.420    1097.426     336.056
  H     -790.536    1102.534     339.423
  H     -787.311    1100.534     339.181
  H     -788.863    1102.772     340.627
  H     -786.940    1102.718     342.216
  H     -787.024    1099.911     342.322
  H     -789.342    1100.024     343.293
  H     -788.219    1101.220     344.005
  H     -792.252    1099.186     334.424
  H     -792.675    1100.550     335.471
  P     -784.506    1102.575     341.146
  C     -782.979    1100.653     342.057
  O     -783.147    1101.736     341.139
  O     -784.630    1102.977     342.689
  O     -784.522    1103.772     340.267
  H     -784.266    1103.866     342.824
  H     -782.017    1100.208     341.912
  H     -783.740    1099.920     341.887
  H     -783.055    1101.020     343.059

 6  7  8  9  10  11  12  13  14  15  25  28  32  33  34  35 0
 6-311+G(2d,p)
 ****
 36  37  40 0
 6-311+G(2d,p)
 ****
 1  2  3  4  5  16  17  18  19  20  21  22  23  24 0
 3-21G
 ****
 26  27  29  30  31  38  39 41  42  43  44  45  46  47  48 0
 3-21G
 ****


