%nproc=1
%NoSave
%Mem=1900MB
#P OB98/GEN NMR

erre ene a

0 1
  C     1359.039    -528.958    -780.090
  O     1360.037    -527.946    -780.106
  P     1361.294    -528.137    -779.125
  C     1359.857    -528.560    -776.990
  O     1360.766    -527.698    -777.666
  C     1360.346    -528.890    -775.588
  O     1361.397    -529.869    -775.632
  C     1360.952    -527.683    -774.854
  O     1359.950    -526.858    -774.249
  C     1361.766    -528.393    -773.782
  O     1360.891    -528.817    -772.713
  C     1362.302    -529.616    -774.528
  N     1367.136    -528.519    -773.289
  C     1366.003    -528.568    -772.546
  N     1364.766    -528.872    -772.953
  C     1364.716    -529.075    -774.276
  C     1365.788    -529.008    -775.165
  C     1367.050    -528.733    -774.616
  N     1368.202    -528.698    -775.364
  N     1365.356    -529.291    -776.448
  C     1364.090    -529.509    -776.342
  N     1363.640    -529.420    -775.050
  O     1362.272    -526.935    -779.537
  O     1361.974    -529.461    -779.204
  H     1360.183    -529.360    -773.115
  H     1363.189    -527.147    -779.275
  H     1366.125    -528.347    -771.491
  H     1363.419    -529.784    -777.171
  H     1362.318    -530.519    -773.920
  H     1362.529    -527.753    -773.321
  H     1361.630    -527.109    -775.497
  H     1359.506    -529.308    -775.015
  H     1359.761    -529.501    -777.560
  H     1369.087    -528.671    -774.881
  H     1368.170    -529.061    -776.311
  H     1358.864    -528.092    -776.957
  P     1359.460    -525.598    -775.121
  C     1361.469    -524.301    -774.097
  O     1360.082    -524.319    -774.361
  O     1357.898    -525.517    -774.767
  O     1359.714    -525.708    -776.586
  H     1357.414    -525.073    -775.497
  H     1361.782    -523.278    -773.891
  H     1362.044    -524.679    -774.946
  H     1361.681    -524.918    -773.210
  H     1358.265    -528.707    -780.785
  H     1358.624    -529.034    -779.107
  H     1359.476    -529.895    -780.366

 3  4  5  6  7  8  9  10  11  12  22  25  29  30  31  32 0
 6-311+G(2d,p)
 ****
 33  36  37 0
 6-311+G(2d,p)
 ****
 1  2  13  14  15  16  17  18  19  20  21  23  24  26 0
 3-21G
 ****
 27  28  34  35  38  39  40  41  42  43  44  45  46  47  48 0
 3-21G
 ****


