%nproc=1
%NoSave
%Mem=1900MB
#P OB98/GEN NMR

erre ene a

0 1
  C      354.987     257.800     620.409
  O      356.251     257.659     619.796
  H      354.786     258.864     620.548
  H      354.994     257.311     621.389
  H      354.198     257.372     619.788
  P      356.658     256.237     619.184
  C      358.323     256.086     621.154
  O      358.110     255.874     619.765
  C      359.585     255.354     621.628
  O      359.366     253.922     621.528
  C      360.791     255.679     620.741
  O      362.024     255.571     621.449
  C      360.734     254.588     619.681
  O      361.995     254.353     619.055
  C      360.219     253.404     620.495
  N      360.493     249.195     617.631
  C      361.511     249.994     618.112
  N      362.771     249.615     617.791
  N      361.318     251.070     618.820
  C      360.005     251.366     619.006
  C      358.908     250.671     618.565
  C      359.136     249.457     617.806
  O      358.272     248.729     617.337
  N      357.738     251.282     618.942
  C      358.130     252.350     619.604
  N      359.495     252.434     619.698
  O      356.976     256.565     617.649
  O      355.628     255.155     619.318
  H      362.578     253.941     619.717
  H      356.894     255.759     617.108
  H      360.700     248.361     617.113
  H      357.465     253.079     620.052
  H      361.051     252.882     620.983
  H      360.037     254.909     618.900
  H      362.951     248.914     617.084
  H      360.730     256.667     620.290
  H      363.495     250.337     617.860
  H      359.772     255.571     622.686
  H      357.441     255.708     621.673
  H      358.394     257.156     621.369
  P      362.521     256.827     622.311
  C      363.912     258.072     620.431
  O      363.863     257.420     621.680
  O      363.004     256.171     623.688
  O      361.481     257.882     622.527
  H      362.439     256.474     624.423
  H      364.917     258.378     620.227
  H      363.275     258.931     620.452
  H      363.581     257.402     619.665

 6  7  8  9  10  11  12  13  14  15  26  29  33  34 0
 6-311+G(2d,p)
 ****
 36  38  39  40  41 0
 6-311+G(2d,p)
 ****
 1  2  3  4  5  16  17  18  19  20  21  22  23  24  25 0
 3-21G
 ****
 27  28  30  31  32  35  37  42  43  44  45  46  47 0
 3-21G
 ****
 48  49 0
 3-21G
 ****


