%nproc=1
%NoSave
%Mem=1900MB
#P OB98/GEN NMR

erre ene a

0 1
  C      688.766     121.433     -31.632
  O      689.028     122.643     -32.323
  H      687.923     121.592     -30.956
  H      689.644     121.151     -31.041
  H      688.516     120.638     -32.338
  P      690.076     122.562     -33.532
  C      691.609     124.288     -32.283
  O      690.958     123.907     -33.488
  C      692.947     124.953     -32.595
  O      693.866     124.006     -33.180
  C      692.865     126.057     -33.630
  O      692.266     127.238     -33.125
  C      694.340     126.237     -33.973
  O      694.998     127.108     -33.048
  C      694.878     124.790     -33.852
  N      695.238     124.240     -35.150
  C      696.542     124.527     -35.582
  O      697.297     125.186     -34.862
  N      696.931     124.096     -36.822
  C      696.086     123.459     -37.580
  N      696.529     123.084     -38.811
  C      694.709     123.135     -37.166
  C      694.350     123.556     -35.948
  O      689.146     122.777     -34.815
  O      690.891     121.315     -33.567
  H      695.878     127.310     -33.437
  H      688.551     123.538     -34.742
  H      694.053     122.597     -37.829
  H      693.355     123.366     -35.560
  H      695.772     124.769     -33.213
  H      694.468     126.677     -34.966
  H      692.345     125.702     -34.532
  H      693.379     125.317     -31.653
  H      697.467     123.369     -39.076
  H      691.760     123.416     -31.634
  H      695.940     122.654     -39.509
  H      690.951     124.983     -31.752
  P      690.939     127.844     -33.794
  C      692.078     130.085     -34.339
  O      691.026     129.440     -33.629
  O      689.652     127.253     -33.323
  O      691.199     127.655     -35.367
  H      691.999     128.105     -35.701
  H      692.038     131.138     -34.156
  H      691.966     129.901     -35.387
  H      693.020     129.701     -34.008

 6  7  8  9  10  11  12  13  14  15  16  26  30  31  32  33  35 0
 6-311+G(2d,p)
 ****
 37  38 0
 6-311+G(2d,p)
 ****
 1  2  3  4  5  17  18  19  20  21  22  23  24  25 0
 3-21G
 ****
 27  28  29  34  36  39  40  41  42  43  44  45  46 0
 3-21G
 ****


