%nproc=1
%NoSave
%Mem=1900MB
#P OB98/GEN NMR

erre ene a

0 1
  C        0.068      44.562      -8.462
  O        0.273      43.241      -8.919
  H        0.443      45.255      -9.219
  H        0.608      44.736      -7.529
  H       -0.999      44.751      -8.316
  P       -0.090      42.029      -7.937
  C        1.542      40.498      -9.233
  O        0.223      40.678      -8.740
  C        1.579      39.404     -10.307
  O        1.195      39.988     -11.585
  C        2.965      38.767     -10.495
  O        2.759      37.414     -10.922
  C        3.529      39.605     -11.625
  O        4.664      39.005     -12.197
  C        2.284      39.757     -12.505
  N        2.414      40.828     -13.479
  C        3.009      40.487     -14.696
  O        3.401      39.338     -14.896
  N        3.172      41.463     -15.646
  C        2.835      42.685     -15.378
  N        3.037      43.607     -16.356
  C        2.258      43.099     -14.081
  C        2.073      42.128     -13.189
  O       -1.442      42.085      -7.309
  O        1.068      42.069      -6.831
  H        4.453      38.104     -12.531
  H        0.717      42.440      -6.001
  H        2.011      44.134     -13.900
  H        1.656      42.333     -12.208
  H        2.069      38.823     -13.040
  H        3.848      40.585     -11.255
  H        3.572      38.789      -9.587
  H        0.824      38.647     -10.065
  H        3.445      43.282     -17.224
  H        2.173      40.212      -8.387
  H        2.833      44.590     -16.254
  H        1.919      41.437      -9.652
  P        3.878      36.275     -10.778
  C        3.365      35.327     -13.122
  O        3.506      35.044     -11.733
  O        4.168      35.884      -9.365
  O        5.189      36.892     -11.463
  H        5.980      36.533     -11.019
  H        3.118      34.427     -13.646
  H        4.285      35.719     -13.501
  H        2.586      36.047     -13.262

 6  7  8  9  10  11  12  13  14  15  16  26  30  31  32  33  35 0
 6-311+G(2d,p)
 ****
 37  38 0
 6-311+G(2d,p)
 ****
 1  2  3  4  5  17  18  19  20  21  22  23  24  25 0
 3-21G
 ****
 27  28  29  34  36  39  40  41  42  43  44  45  46 0
 3-21G
 ****


