%nproc=1
%NoSave
%Mem=1900MB
#P OB98/GEN NMR

erre ene a

0 1
  C      -64.668    -158.984     176.616
  O      -65.414    -159.144     175.427
  H      -65.322    -159.072     177.490
  H      -63.909    -159.768     176.663
  H      -64.171    -158.010     176.619
  P      -66.654    -158.147     175.224
  C      -68.060    -160.317     175.033
  O      -67.978    -158.996     175.548
  C      -68.653    -161.254     176.079
  O      -68.019    -161.039     177.356
  C      -70.144    -161.065     176.333
  O      -70.936    -161.680     175.323
  C      -70.292    -161.774     177.671
  O      -70.374    -163.195     177.461
  C      -68.975    -161.422     178.380
  N      -70.784    -160.010     182.974
  C      -70.835    -161.187     182.306
  N      -70.344    -161.486     181.087
  C      -69.729    -160.422     180.545
  C      -69.596    -159.159     181.104
  C      -70.167    -158.966     182.375
  N      -70.124    -157.759     183.037
  N      -68.894    -158.324     180.264
  C      -68.602    -159.066     179.215
  N      -69.093    -160.341     179.336
  O      -66.721    -157.952     173.633
  O      -66.543    -156.838     175.930
  H      -69.675    -163.424     176.817
  H      -66.995    -157.035     173.439
  H      -71.336    -162.000     182.828
  H      -68.039    -158.729     178.354
  H      -68.554    -162.292     178.900
  H      -71.186    -161.471     178.220
  H      -70.395    -160.007     176.452
  H      -68.438    -162.286     175.767
  H      -67.057    -160.664     174.765
  H      -70.367    -157.736     184.014
  H      -69.649    -156.985     182.584
  H      -68.683    -160.308     174.132
  P      -71.885    -160.725     174.444
  C      -73.930    -162.258     174.894
  O      -73.368    -160.953     175.012
  O      -71.915    -161.460     173.024
  O      -71.430    -159.309     174.331
  H      -72.111    -160.810     172.318
  H      -74.915    -162.261     175.312
  H      -73.317    -162.959     175.421
  H      -73.980    -162.533     173.861

 6  7  8  9  10  11  12  13  14  15  25  28  32  33  34  35 0
 6-311+G(2d,p)
 ****
 36  39  40 0
 6-311+G(2d,p)
 ****
 1  2  3  4  5  16  17  18  19  20  21  22  23  24 0
 3-21G
 ****
 26  27  29  30  31  37  38  41  42  43  44  45  46  47  48 0
 3-21G
 ****


