%nproc=1
%NoSave
%Mem=1900MB
#P OB98/GEN NMR

erre ene a

0 1
  C     -134.781     219.659    -191.917
  O     -134.985     219.266    -193.263
  P     -134.001     219.674    -194.453
  C     -134.278     217.316    -195.508
  O     -134.311     218.721    -195.713
  C     -135.120     216.539    -196.543
  O     -136.513     216.878    -196.383
  C     -134.728     216.976    -197.965
  O     -133.606     216.396    -198.604
  C     -136.032     216.919    -198.765
  O     -136.153     215.701    -199.517
  C     -137.111     216.981    -197.678
  N     -140.810     219.526    -200.076
  C     -140.476     218.181    -200.154
  N     -141.099     217.481    -201.138
  N     -139.613     217.596    -199.361
  C     -139.016     218.451    -198.497
  C     -139.264     219.790    -198.314
  C     -140.250     220.416    -199.167
  O     -140.508     221.618    -199.183
  N     -138.404     220.359    -197.389
  C     -137.607     219.356    -197.044
  N     -137.920     218.195    -197.717
  O     -132.572     219.939    -194.086
  O     -134.638     221.081    -194.926
  H     -136.074     214.960    -198.891
  H     -133.903     221.661    -195.214
  H     -141.424     219.941    -200.762
  H     -136.795     219.441    -196.353
  H     -137.809     216.131    -197.773
  H     -136.079     217.744    -199.489
  H     -141.649     217.927    -201.849
  H     -134.482     218.044    -197.908
  H     -140.756     216.545    -201.331
  H     -135.050     215.465    -196.378
  H     -134.643     217.122    -194.499
  H     -133.248     216.963    -195.550
  P     -132.903     216.914    -199.940
  C     -130.903     215.356    -199.601
  O     -131.939     215.766    -200.484
  O     -131.877     218.038    -199.425
  O     -133.826     217.503    -200.965
  H     -131.656     218.655    -200.168
  H     -130.143     214.807    -200.164
  H     -131.325     214.691    -198.844
  H     -130.437     216.220    -199.122
  H     -135.568     219.266    -191.308
  H     -134.780     220.727    -191.854
  H     -133.841     219.280    -191.573

 3  4  5  6  7  8  9  10  11  12  23  26  30  31 0
 6-311+G(2d,p)
 ****
 33  35  36  37  38 0
 6-311+G(2d,p)
 ****
 1  2  13  14  15  16  17  18  19  20  21  22  24  25 0
 3-21G
 ****
 27  28  29  32  34  39  40  41  42  43  44  45  46  47  48  49 0
 3-21G
 ****


