%nproc=1
%NoSave
%Mem=1900MB
#P OB98/GEN NMR

erre ene a

0 1
  C      632.608    -559.990    -111.983
  O      632.083    -560.850    -112.973
  H      632.677    -560.536    -111.038
  H      631.934    -559.140    -111.842
  H      633.605    -559.633    -112.256
  P      632.258    -560.398    -114.503
  C      629.708    -559.961    -114.693
  O      630.839    -560.639    -115.216
  C      628.783    -560.941    -113.969
  O      629.255    -561.087    -112.591
  C      627.309    -560.496    -113.912
  O      626.472    -561.654    -114.030
  C      627.178    -559.951    -112.499
  O      625.833    -559.974    -112.040
  C      628.105    -560.900    -111.745
  N      626.556    -560.564    -106.982
  C      626.080    -561.330    -108.028
  N      624.985    -562.093    -107.790
  N      626.630    -561.360    -109.214
  C      627.732    -560.568    -109.306
  C      628.296    -559.757    -108.353
  C      627.669    -559.729    -107.050
  O      628.021    -559.051    -106.090
  N      629.374    -559.072    -108.868
  C      629.440    -559.451    -110.129
  N      628.465    -560.360    -110.445
  O      633.185    -561.558    -115.105
  O      632.856    -559.045    -114.705
  H      625.801    -559.557    -111.157
  H      634.121    -561.283    -115.075
  H      626.082    -560.568    -106.094
  H      630.158    -559.089    -110.853
  H      627.648    -561.884    -111.564
  H      627.547    -558.921    -112.459
  H      624.522    -562.149    -106.896
  H      627.036    -559.762    -114.678
  H      624.653    -562.690    -108.536
  H      628.870    -561.923    -114.442
  H      629.152    -559.498    -115.517
  H      630.041    -559.171    -114.015
  P      625.471    -561.738    -115.278
  C      623.540    -562.863    -113.943
  O      624.444    -562.947    -115.032
  O      626.407    -562.283    -116.454
  O      624.841    -560.430    -115.638
  H      626.134    -561.893    -117.305
  H      622.929    -563.741    -113.918
  H      622.919    -562.000    -114.061
  H      624.090    -562.784    -113.028

 6  7  8  9  10  11  12  13  14  15  26  29  33  34 0
 6-311+G(2d,p)
 ****
 36  38  39  40  41 0
 6-311+G(2d,p)
 ****
 1  2  3  4  5  16  17  18  19  20  21  22  23  24  25 0
 3-21G
 ****
 27  28  30  31  32  35  37  42  43  44  45  46  47 0
 3-21G
 ****
 48  49 0
 3-21G
 ****


