%nproc=1
%NoSave
%Mem=1900MB
#P OB98/GEN NMR

erre ene a

0 1
  C      250.131     575.860     303.994
  O      250.881     574.866     303.275
  P      252.435     575.036     302.935
  C      252.427     574.039     300.557
  O      252.869     573.890     301.906
  C      253.047     572.986     299.632
  O      254.478     573.084     299.625
  C      252.740     571.540     300.029
  O      251.435     571.180     299.612
  C      253.861     570.795     299.316
  O      253.551     570.597     297.929
  C      255.036     571.783     299.462
  N      259.009     568.916     301.012
  C      258.378     569.031     299.815
  N      257.328     569.812     299.483
  C      256.931     570.542     300.536
  C      257.453     570.528     301.823
  C      258.550     569.668     302.047
  N      259.167     569.542     303.276
  N      256.774     571.403     302.653
  C      255.865     571.948     301.868
  N      255.903     571.456     300.587
  O      253.317     575.156     304.134
  O      252.510     576.378     302.040
  H      253.342     571.472     297.544
  H      253.372     576.799     302.159
  H      258.788     568.420     299.018
  H      255.138     572.685     302.190
  H      255.667     571.797     298.561
  H      254.058     569.803     299.748
  H      252.848     571.415     301.104
  H      252.691     573.181     298.605
  H      252.701     575.043     300.215
  H      259.912     568.874     303.360
  H      258.795     570.055     304.066
  H      251.332     573.952     300.538
  P      250.351     570.730     300.703
  C      249.100     568.825     299.483
  O      249.066     570.197     299.892
  O      250.047     571.724     301.765
  O      250.960     569.376     301.312
  H      250.666     569.287     302.247
  H      249.708     568.741     298.579
  H      248.078     568.509     299.256
  H      249.509     568.198     300.274
  H      249.118     575.532     304.104
  H      250.151     576.783     303.452
  H      250.566     576.005     304.961

 3  4  5  6  7  8  9  10  11  12  22  25  29  30  31  32 0
 6-311+G(2d,p)
 ****
 33  36  37 0
 6-311+G(2d,p)
 ****
 1  2  13  14  15  16  17  18  19  20  21  23  24  26 0
 3-21G
 ****
 27  28  34  35  38  39  40  41  42  43  44  45  46  47  48 0
 3-21G
 ****


