%nproc=1
%NoSave
%Mem=1900MB
#P OB98/GEN NMR

erre ene a

0 1
  C       -3.766      16.050     -45.035
  O       -2.611      16.693     -45.530
  H       -3.544      15.639     -44.047
  H       -4.045      15.227     -45.697
  H       -4.600      16.751     -44.942
  P       -2.733      17.620     -46.831
  C       -1.174      19.406     -45.812
  O       -1.388      18.494     -46.879
  C        0.324      19.656     -45.627
  O        0.941      18.412     -45.174
  C        1.040      20.088     -46.922
  O        2.092      20.998     -46.580
  C        1.623      18.774     -47.398
  O        2.678      18.963     -48.305
  C        2.030      18.136     -46.072
  N        2.283      16.706     -46.221
  C        3.576      16.267     -45.965
  O        4.498      17.012     -45.638
  N        3.808      14.934     -46.170
  C        2.923      14.043     -46.701
  O        3.208      12.878     -46.938
  C        1.584      14.577     -47.003
  C        1.327      15.861     -46.747
  O       -3.993      18.410     -46.955
  O       -2.522      16.612     -48.056
  H        3.378      19.505     -47.895
  H       -2.895      16.989     -48.874
  H        4.739      14.598     -45.979
  H        0.862      13.899     -47.439
  H        0.359      16.292     -46.974
  H        2.928      18.619     -45.665
  H        0.852      18.179     -47.900
  H        0.369      20.549     -47.650
  H        0.469      20.394     -44.830
  H       -1.595      18.971     -44.899
  H       -1.689      20.348     -46.028
  P        1.810      22.555     -46.314
  C        3.740      22.749     -44.631
  O        3.149      23.290     -45.808
  O        0.613      22.824     -45.460
  O        1.585      23.170     -47.776
  H        0.801      23.751     -47.761
  H        4.618      23.308     -44.384
  H        4.004      21.726     -44.802
  H        3.041      22.806     -43.823

 6  7  8  9  10  11  12  13  14  15  16  26  31  32  33  34  35 0
 6-311+G(2d,p)
 ****
 36  37 0
 6-311+G(2d,p)
 ****
 1  2  3  4  5  17  18  19  20  21  22  23  24  25 0
 3-21G
 ****
 27  28  29  30  38  39  40  41  42  43  44  45 0
 3-21G
 ****


