%nproc=1
%NoSave
%Mem=1900MB
#P OB98/GEN NMR

erre ene a

0 1
  C      721.148    -416.365      22.304
  O      720.854    -417.712      22.613
  H      721.037    -416.219      21.228
  H      722.178    -416.133      22.583
  H      720.460    -415.687      22.820
  P      720.763    -418.152      24.149
  C      718.825    -419.830      23.828
  O      720.191    -419.649      24.170
  C      718.320    -421.191      24.315
  O      719.134    -422.239      23.705
  C      718.401    -421.387      25.844
  O      717.335    -422.274      26.211
  C      719.753    -422.066      25.972
  O      719.969    -422.606      27.252
  C      719.661    -423.039      24.786
  N      720.914    -423.675      24.401
  C      721.279    -424.839      25.066
  O      720.617    -425.377      25.954
  N      722.468    -425.402      24.675
  C      723.294    -424.929      23.700
  O      724.334    -425.491      23.371
  C      722.859    -423.687      23.036
  C      721.704    -423.132      23.408
  O      720.063    -417.195      25.059
  O      722.295    -418.351      24.575
  H      722.598    -417.578      25.086
  H      719.877    -421.891      27.920
  H      722.746    -426.247      25.143
  H      723.495    -423.280      22.265
  H      721.350    -422.222      22.931
  H      718.913    -423.813      25.002
  H      720.553    -421.335      25.816
  H      718.306    -420.451      26.402
  H      717.294    -421.339      23.953
  H      718.738    -419.774      22.737
  H      718.232    -419.026      24.273
  P      715.989    -421.786      26.936
  C      714.452    -423.558      25.838
  O      714.998    -423.043      27.047
  O      715.365    -420.583      26.305
  O      716.410    -421.490      28.454
  H      715.802    -420.827      28.838
  H      713.814    -424.388      26.060
  H      715.246    -423.880      25.197
  H      713.885    -422.794      25.348

 6  7  8  9  10  11  12  13  14  15  16  27  31  32  33  34  35 0
 6-311+G(2d,p)
 ****
 36  37 0
 6-311+G(2d,p)
 ****
 1  2  3  4  5  17  18  19  20  21  22  23  24  25 0
 3-21G
 ****
 26  28  29  30  38  39  40  41  42  43  44  45 0
 3-21G
 ****


