%nproc=1
%NoSave
%Mem=1900MB
#P OB98/GEN NMR

erre ene a

0 1
  C      -95.184       5.346     137.254
  O      -95.451       6.556     137.957
  P      -96.699       6.802     138.916
  C      -98.472       7.740     137.215
  O      -98.039       6.678     138.054
  C      -99.898       7.494     136.702
  O     -100.282       8.604     135.835
  C     -100.010       6.210     135.870
  O     -101.183       5.453     136.146
  C      -99.827       6.713     134.448
  O     -100.316       5.815     133.464
  C     -100.502       8.081     134.505
  N      -99.472       8.899     129.573
  C      -99.834       7.729     130.208
  N      -99.921       6.623     129.440
  N     -100.074       7.645     131.489
  C      -99.876       8.803     132.155
  C      -99.503      10.023     131.640
  C      -99.288      10.118     130.213
  O      -98.986      11.134     129.596
  N      -99.413      10.974     132.625
  C      -99.710      10.327     133.733
  N     -100.008       9.004     133.499
  O      -96.597       7.976     139.833
  O      -96.743       5.476     139.834
  H      -99.931       6.074     132.606
  H      -97.091       5.756     140.704
  H      -99.322       8.912     128.579
  H      -99.740      10.764     134.724
  H     -101.580       8.015     134.345
  H      -98.750       6.824     134.273
  H      -99.630       6.593     128.475
  H      -99.197       5.518     136.113
  H      -99.968       5.736     129.942
  H     -100.583       7.480     137.557
  H      -97.772       7.763     136.374
  H      -98.398       8.696     137.734
  P     -101.311       4.043     136.884
  C     -100.736       2.566     134.869
  O     -100.341       2.999     136.157
  O     -102.767       3.505     136.500
  O     -101.156       4.100     138.368
  H     -103.305       3.402     137.310
  H     -100.155       1.681     134.601
  H     -100.534       3.355     134.138
  H     -101.799       2.312     134.854
  H      -94.284       5.455     136.686
  H      -95.998       5.129     136.595
  H      -95.069       4.545     137.954

 3  4  5  6  7  8  9  10  11  12  23  26  30  31 0
 6-311+G(2d,p)
 ****
 33  35  36  37  38 0
 6-311+G(2d,p)
 ****
 1  2  13  14  15  16  17  18  19  20  21  22  24  25 0
 3-21G
 ****
 27  28  29  32  34  39  40  41  42  43  44  45  46  47  48  49 0
 3-21G
 ****


