%nproc=1
%NoSave
%Mem=1900MB
#P OB98/GEN NMR

erre ene a

0 1
  C      102.891      28.723      78.818
  O      104.169      28.179      78.547
  H      102.902      29.154      79.822
  H      102.127      27.942      78.780
  H      102.654      29.513      78.101
  P      104.405      27.445      77.144
  C      104.451      25.112      78.252
  O      103.811      25.964      77.310
  C      103.930      23.685      78.116
  O      102.498      23.654      78.274
  C      104.227      23.035      76.764
  O      105.550      22.531      76.732
  C      103.183      21.931      76.752
  O      103.610      20.851      77.606
  C      101.966      22.641      77.376
  N       97.697      22.186      74.668
  C       98.362      21.251      75.438
  N       97.829      20.011      75.465
  N       99.455      21.505      76.109
  C       99.910      22.766      75.932
  C       99.352      23.776      75.182
  C       98.106      23.501      74.497
  O       97.472      24.310      73.824
  N      100.149      24.892      75.165
  C      101.163      24.575      75.949
  N      101.071      23.289      76.434
  O      105.804      27.481      76.609
  O      103.364      28.147      76.151
  H      102.960      20.131      77.504
  H      103.773      28.900      75.687
  H       96.863      21.930      74.166
  H      101.984      25.235      76.203
  H      101.354      21.958      77.976
  H      103.019      21.512      75.758
  H       97.081      19.716      74.856
  H      104.026      23.722      75.936
  H       98.335      19.297      75.978
  H      104.357      23.093      78.936
  H      104.234      25.504      79.251
  H      105.536      25.123      78.102
  P      106.440      22.591      75.394
  C      105.890      20.093      75.014
  O      105.896      21.401      74.468
  O      107.912      22.581      75.621
  O      105.905      23.883      74.622
  H      106.339      24.720      74.922
  H      105.504      19.406      74.290
  H      105.273      20.074      75.888
  H      106.888      19.811      75.276

 6  7  8  9  10  11  12  13  14  15  26  29  33  34 0
 6-311+G(2d,p)
 ****
 36  38  39  40  41 0
 6-311+G(2d,p)
 ****
 1  2  3  4  5  16  17  18  19  20  21  22  23  24  25 0
 3-21G
 ****
 27  28  30  31  32  35  37  42  43  44  45  46  47 0
 3-21G
 ****
 48  49 0
 3-21G
 ****


