%nproc=1
%NoSave
%Mem=1900MB
#P OB98/GEN NMR

erre ene a

0 1
  C     -175.034    -289.664     -95.575
  O     -173.931    -289.629     -96.473
  P     -172.509    -290.136     -95.918
  C     -171.576    -287.715     -95.834
  O     -171.903    -288.895     -95.102
  C     -171.381    -286.537     -94.888
  O     -172.516    -286.429     -94.005
  C     -170.168    -286.647     -93.975
  O     -168.969    -286.268     -94.639
  C     -170.529    -285.653     -92.883
  O     -170.205    -284.318     -93.318
  C     -172.054    -285.822     -92.771
  N     -173.976    -285.878     -88.086
  C     -173.712    -284.814     -88.922
  N     -174.026    -283.585     -88.451
  N     -173.180    -284.934     -90.108
  C     -172.954    -286.222     -90.465
  C     -173.170    -287.364     -89.726
  C     -173.715    -287.210     -88.389
  O     -173.907    -288.113     -87.581
  N     -172.831    -288.485     -90.429
  C     -172.439    -288.034     -91.604
  N     -172.468    -286.657     -91.661
  O     -171.606    -290.188     -97.238
  O     -172.539    -291.447     -95.208
  H     -169.282    -284.334     -93.631
  H     -170.880    -290.832     -97.117
  H     -174.400    -285.729     -87.187
  H     -172.134    -288.656     -92.430
  H     -172.558    -284.852     -92.684
  H     -169.984    -285.825     -91.950
  H     -174.558    -283.439     -87.601
  H     -170.088    -287.651     -93.545
  H     -173.876    -282.794     -89.062
  H     -171.335    -285.620     -95.485
  H     -172.389    -287.486     -96.525
  H     -170.664    -287.898     -96.409
  P     -167.650    -287.111     -94.277
  C     -166.459    -285.240     -92.922
  O     -167.121    -286.491     -92.897
  O     -166.589    -286.607     -95.363
  O     -167.837    -288.591     -94.309
  H     -165.912    -287.298     -95.518
  H     -166.898    -284.570     -93.669
  H     -165.400    -285.396     -93.146
  H     -166.551    -284.771     -91.937
  H     -175.910    -289.302     -96.072
  H     -174.823    -289.046     -94.727
  H     -175.198    -290.670     -95.251

 3  4  5  6  7  8  9  10  11  12  23  26  30  31  33  0
 6-311+G(2d,p)
 ****
 35  36  37  38 0
 6-311+G(2d,p)
 ****
 1  2  13  14  15  16  17  18  19  20  21  22  24  25  27  28  29 0
 3-21G
 ****
 32  34  39  40  41  42  43  44  45  46  47  48  49 0
 3-21G
 ****


