%nproc=1
%NoSave
%Mem=1900MB
#P OB98/GEN NMR

erre ene a

0 1
  C     -951.432     753.516     365.364
  O     -950.641     752.437     364.926
  P     -950.363     752.131     363.395
  C     -947.825     752.778     363.398
  O     -949.137     753.033     362.889
  C     -946.859     752.365     362.268
  O     -946.865     753.396     361.258
  C     -945.403     752.236     362.796
  O     -944.722     751.101     362.271
  C     -944.821     753.614     362.500
  O     -943.401     753.620     362.463
  C     -945.553     753.994     361.205
  N     -943.126     758.347     360.186
  C     -942.649     757.060     360.098
  N     -941.321     756.903     359.932
  N     -943.410     756.006     360.246
  C     -944.704     756.286     360.566
  C     -945.279     757.536     360.648
  C     -944.454     758.689     360.473
  O     -944.801     759.851     360.620
  N     -946.597     757.440     361.040
  C     -946.806     756.144     361.210
  N     -945.677     755.417     360.968
  O     -951.556     752.019     362.503
  O     -949.672     750.663     363.486
  H     -943.136     754.537     362.279
  H     -949.955     750.173     362.696
  H     -942.462     759.125     360.144
  H     -947.725     755.695     361.521
  H     -945.028     753.574     360.323
  H     -945.135     754.269     363.321
  H     -940.713     757.705     359.972
  H     -945.411     752.059     363.868
  H     -940.908     756.010     360.116
  H     -947.231     751.428     361.806
  H     -947.930     751.969     364.120
  H     -947.446     753.640     363.928
  P     -943.587     750.223     362.950
  C     -945.220     748.859     364.404
  O     -944.115     749.750     364.407
  O     -942.426     751.255     363.329
  O     -943.028     749.125     362.111
  H     -941.547     750.855     363.183
  H     -945.656     748.833     365.414
  H     -944.904     747.864     364.125
  H     -945.983     749.207     363.696
  H     -951.473     753.517     366.433
  H     -952.421     753.416     364.969
  H     -951.002     754.435     365.023

 3  4  5  6  7  8  9  10  11  12  23  26  30  31 0
 6-311+G(2d,p)
 ****
 33  35  36  37  38 0
 6-311+G(2d,p)
 ****
 1  2  13  14  15  16  17  18  19  20  21  22  24  25 0
 3-21G
 ****
 27  28  29  32  34  39  40  41  42  43  44  45  46  47  48  49 0
 3-21G
 ****


