%nproc=1
%NoSave
%Mem=1900MB
#P OB98/GEN NMR

erre ene a

0 1
  C       49.399    -246.213     165.673
  O       48.061    -245.935     166.028
  H       50.062    -245.689     166.367
  H       49.597    -245.854     164.660
  H       49.601    -247.286     165.736
  P       46.924    -246.771     165.262
  C       45.468    -245.557     163.488
  O       46.744    -246.082     163.821
  C       45.166    -244.323     164.334
  O       46.338    -243.478     164.428
  C       44.048    -243.443     163.787
  O       42.763    -243.932     164.147
  C       44.355    -242.131     164.489
  O       43.909    -242.196     165.860
  C       45.889    -242.093     164.432
  N       47.631    -237.694     162.606
  C       47.153    -238.004     163.865
  N       47.124    -236.997     164.763
  N       46.732    -239.194     164.211
  C       46.808    -240.101     163.208
  C       47.263    -239.913     161.923
  C       47.732    -238.597     161.553
  O       48.186    -238.272     160.459
  N       47.195    -241.073     161.193
  C       46.680    -241.954     162.025
  N       46.420    -241.412     163.263
  O       45.580    -246.363     166.036
  O       47.115    -248.251     165.250
  H       42.936    -242.221     165.839
  H       44.989    -247.141     166.071
  H       47.931    -236.758     162.388
  H       46.483    -242.990     161.789
  H       46.329    -241.609     165.313
  H       43.855    -241.277     164.032
  H       47.385    -236.047     164.548
  H       44.141    -243.304     162.700
  H       46.808    -237.208     165.701
  H       44.928    -244.663     165.352
  H       44.703    -246.320     163.675
  H       45.457    -245.296     162.423
  P       41.483    -243.097     163.651
  C       40.146    -241.867     165.510
  O       41.320    -241.896     164.703
  O       40.261    -244.070     164.006
  O       41.499    -242.715     162.211
  H       39.493    -243.854     163.445
  H       40.179    -241.015     166.157
  H       40.095    -242.760     166.098
  H       39.282    -241.804     164.881

 6  7  8  9  10  11  12  13  14  15  26  29  33  34 0
 6-311+G(2d,p)
 ****
 36  38  39  40  41 0
 6-311+G(2d,p)
 ****
 1  2  3  4  5  16  17  18  19  20  21  22  23  24  25 0
 3-21G
 ****
 27  28  30  31  32  35  37  42  43  44  45  46  47 0
 3-21G
 ****
 48  49 0
 3-21G
 ****


