%nproc=1
%NoSave
%Mem=1900MB
#P OB98/GEN NMR

erre ene a

0 1
  C       45.823    -136.446    -343.806
  O       45.402    -137.268    -342.730
  P       43.842    -137.519    -342.440
  C       42.596    -139.086    -340.804
  O       43.799    -138.830    -341.517
  C       42.767    -140.316    -339.919
  O       42.878    -141.492    -340.745
  C       44.020    -140.299    -339.050
  O       43.854    -139.438    -337.932
  C       44.162    -141.780    -338.722
  O       43.262    -142.147    -337.666
  C       43.717    -142.443    -340.043
  N       44.840    -142.866    -340.871
  C       44.942    -144.236    -341.132
  O       44.113    -145.030    -340.687
  N       45.970    -144.679    -341.928
  C       46.832    -143.836    -342.404
  N       47.790    -144.321    -343.240
  C       46.795    -142.391    -342.107
  C       45.781    -141.980    -341.347
  O       42.983    -137.586    -343.657
  O       43.431    -136.363    -341.420
  H       43.213    -143.125    -337.664
  H       43.136    -135.530    -341.864
  H       47.546    -141.728    -342.515
  H       45.671    -140.932    -341.101
  H       43.082    -143.312    -339.836
  H       45.174    -142.063    -338.412
  H       44.886    -139.966    -339.634
  H       41.870    -140.419    -339.295
  H       47.672    -145.280    -343.553
  H       41.794    -139.273    -341.529
  H       48.304    -143.714    -343.864
  H       42.333    -138.205    -340.211
  P       45.179    -138.872    -337.232
  C       45.767    -136.689    -335.959
  O       44.823    -137.379    -336.757
  O       46.187    -138.671    -338.458
  O       45.744    -139.760    -336.174
  H       46.828    -139.406    -338.496
  H       45.486    -135.632    -335.928
  H       46.770    -136.772    -336.386
  H       45.757    -137.087    -334.941
  H       46.892    -136.407    -343.828
  H       45.433    -135.458    -343.674
  H       45.461    -136.852    -344.728

 3  4  5  6  7  8  9  10  11  12  13  23  27  28  29  30  32 0
 6-311+G(2d,p)
 ****
 34  35 0
 6-311+G(2d,p)
 ****
 1  2  14  15  16  17  18  19  20  21  22  24  25  26 0
 3-21G
 ****
 31  33  36  37  38  39  40  41  42  43  44  45  46 0
 3-21G
 ****


