%nproc=1
%NoSave
%Mem=1900MB
#P OB98/GEN NMR

erre ene a

0 1
  C     -418.266     427.722    -241.036
  O     -419.499     427.809    -241.725
  H     -417.876     428.733    -240.889
  H     -417.545     427.144    -241.619
  H     -418.417     427.258    -240.058
  P     -420.226     426.421    -242.073
  C     -419.656     427.034    -244.524
  O     -419.660     426.027    -243.522
  C     -420.454     426.579    -245.744
  O     -419.869     425.394    -246.307
  C     -421.909     426.239    -245.453
  O     -422.703     427.416    -245.447
  C     -422.243     425.351    -246.640
  O     -422.539     426.171    -247.787
  C     -420.930     424.584    -246.871
  N     -421.852     419.586    -247.587
  C     -422.189     420.671    -248.314
  N     -421.961     421.970    -248.039
  C     -421.298     422.103    -246.874
  C     -420.893     421.085    -246.025
  C     -421.188     419.772    -246.422
  N     -420.847     418.667    -245.677
  N     -420.245     421.599    -244.919
  C     -420.208     422.898    -245.133
  N     -420.866     423.258    -246.281
  O     -421.708     426.411    -241.921
  O     -419.437     425.414    -241.110
  H     -422.652     425.566    -248.545
  H     -418.487     425.626    -241.098
  H     -422.716     420.468    -249.242
  H     -419.705     423.617    -244.495
  H     -420.716     424.460    -247.940
  H     -423.118     424.724    -246.464
  H     -422.015     425.661    -244.528
  H     -420.385     427.369    -246.505
  H     -418.626     427.268    -244.822
  H     -421.264     417.786    -245.937
  H     -420.466     418.818    -244.753
  H     -420.104     427.935    -244.091
  P     -424.188     427.410    -244.833
  C     -425.023     427.299    -247.264
  O     -425.095     426.722    -245.964
  O     -424.657     428.737    -244.340
  O     -424.137     426.300    -243.688
  H     -424.903     426.404    -243.090
  H     -425.665     426.761    -247.929
  H     -424.016     427.248    -247.622
  H     -425.334     428.322    -247.218

 6  7  8  9  10  11  12  13  14  15  25  28  32  33  34  35 0
 6-311+G(2d,p)
 ****
 36  39  40 0
 6-311+G(2d,p)
 ****
 1  2  3  4  5  16  17  18  19  20  21  22  23  24 0
 3-21G
 ****
 26  27  29  30  31  37  38  41  42  43  44  45  46  47 0
 3-21G
 ****
 48 0
 3-21G
 ****


