%nproc=1
%NoSave
%Mem=1900MB
#P OB98/GEN NMR

erre ene a

0 1
  C      -23.361     376.918     246.947
  O      -23.187     378.146     247.631
  H      -24.306     376.466     247.269
  H      -22.544     376.235     247.194
  H      -23.395     377.080     245.865
  P      -21.988     379.093     247.150
  C      -21.087     381.425     247.860
  O      -21.994     380.369     248.128
  C      -20.916     382.298     249.105
  O      -22.199     382.924     249.413
  C      -20.475     381.526     250.359
  O      -19.595     382.362     251.123
  C      -21.772     381.337     251.123
  O      -21.600     381.122     252.514
  C      -22.491     382.649     250.796
  N      -23.936     382.571     251.022
  C      -24.407     382.921     252.288
  O      -23.708     383.377     253.195
  N      -25.753     382.735     252.491
  C      -26.636     382.223     251.590
  O      -27.826     382.057     251.841
  C      -26.084     381.855     250.277
  C      -24.778     382.045     250.059
  O      -22.531     379.683     245.764
  O      -20.659     378.428     247.006
  H      -22.272     379.106     245.022
  H      -21.161     381.915     252.880
  H      -26.107     382.986     253.398
  H      -26.753     381.435     249.543
  H      -24.328     381.765     249.108
  H      -22.072     383.470     251.388
  H      -22.326     380.479     250.714
  H      -19.980     380.573     250.146
  H      -20.214     383.108     248.881
  H      -21.476     382.042     247.043
  H      -20.118     381.003     247.561
  P      -18.021     382.077     251.014
  C      -15.981     383.022     252.370
  O      -17.372     382.725     252.328
  O      -17.606     383.079     249.829
  O      -17.703     380.639     250.769
  H      -18.113     383.908     249.843
  H      -15.735     383.446     253.321
  H      -15.742     383.721     251.596
  H      -15.420     382.123     252.225

 6  7  8  9  10  11  12  13  14  15  16  27  31  32  33  34  35 0
 6-311+G(2d,p)
 ****
 36  37 0
 6-311+G(2d,p)
 ****
 1  2  3  4  5  17  18  19  20  21  22  23  24  25 0
 3-21G
 ****
 26  28  29  30  38  39  40  41  42  43  44  45 0
 3-21G
 ****


