%nproc=1
%NoSave
%Mem=1900MB
#P OB98/GEN NMR

erre ene a

0 1
  C      576.895     141.647      36.510
  O      577.239     141.999      35.189
  P      576.248     142.744      34.183
  C      576.392     140.821      32.407
  O      575.568     141.641      33.231
  C      575.626     140.354      31.162
  O      576.502     139.511      30.374
  C      574.405     139.490      31.538
  O      573.236     139.760      30.771
  C      574.958     138.071      31.485
  O      573.967     137.075      31.357
  C      575.960     138.175      30.334
  N      577.397     133.335      29.726
  C      576.219     133.944      29.337
  N      575.234     133.126      28.906
  N      576.022     135.245      29.417
  C      577.051     135.920      29.975
  C      578.263     135.423      30.391
  C      578.485     133.994      30.271
  O      579.468     133.395      30.701
  N      579.040     136.386      30.972
  C      578.283     137.473      30.937
  N      577.052     137.221      30.376
  O      576.759     144.000      33.551
  O      575.031     143.145      35.158
  H      573.367     137.150      32.116
  H      574.677     143.998      34.838
  H      577.457     132.323      29.721
  H      578.562     138.438      31.331
  H      575.475     138.034      29.366
  H      575.477     137.888      32.430
  H      575.309     132.128      28.977
  H      574.081     139.704      32.568
  H      574.294     133.519      28.864
  H      575.354     141.221      30.554
  H      576.680     139.961      33.019
  H      577.300     141.353      32.120
  P      571.758     140.056      31.281
  C      570.765     138.105      29.948
  O      570.908     138.692      31.222
  O      571.086     140.937      30.111
  O      571.673     140.782      32.585
  H      570.532     141.630      30.509
  H      569.956     137.357      29.997
  H      571.686     137.596      29.665
  H      570.505     138.853      29.203
  H      577.725     141.160      36.977
  H      576.055     140.984      36.495
  H      576.643     142.529      37.060

 3  4  5  6  7  8  9  10  11  12  23  26  30  31 0
 6-311+G(2d,p)
 ****
 33  35  36  37  38 0
 6-311+G(2d,p)
 ****
 1  2  13  14  15  16  17  18  19  20  21  22  24  25 0
 3-21G
 ****
 27  28  29  32  34  39  40  41  42  43  44  45  46  47  48  49 0
 3-21G
 ****


