%nproc=1
%NoSave
%Mem=1900MB
#P OB98/GEN NMR

erre ene a

0 1
  C      -73.319      -9.102    -111.157
  O      -72.828     -10.409    -111.359
  P      -73.455     -11.700    -110.656
  C      -73.030     -13.041    -108.472
  O      -72.825     -11.825    -109.182
  C      -71.772     -13.524    -107.735
  O      -71.068     -12.388    -107.193
  C      -72.164     -14.399    -106.541
  O      -72.445     -15.771    -106.725
  C      -71.124     -14.095    -105.469
  O      -70.084     -15.072    -105.422
  C      -70.564     -12.736    -105.894
  N      -69.825     -10.818    -101.261
  C      -69.100     -11.786    -101.927
  N      -68.187     -12.452    -101.187
  N      -69.277     -12.084    -103.188
  C      -70.291     -11.400    -103.766
  C      -71.069     -10.409    -103.214
  C      -70.836     -10.061    -101.833
  O      -71.513      -9.268    -101.183
  N      -72.050      -9.991    -104.075
  C      -71.895     -10.756    -105.136
  N      -70.866     -11.654    -104.979
  O      -73.569     -12.933    -111.493
  O      -74.954     -11.191    -110.340
  H      -69.432     -14.785    -104.758
  H      -75.549     -11.960    -110.430
  H      -69.698     -10.687    -100.265
  H      -72.517     -10.725    -106.022
  H      -69.471     -12.780    -105.985
  H      -71.585     -14.086    -104.475
  H      -68.126     -12.351    -100.185
  H      -73.102     -13.989    -106.145
  H      -67.760     -13.277    -101.593
  H      -71.073     -14.006    -108.423
  H      -73.365     -13.791    -109.195
  H      -73.839     -12.909    -107.750
  P      -73.372     -16.685    -105.797
  C      -73.299     -17.708    -103.455
  O      -72.571     -17.017    -104.453
  O      -73.411     -18.100    -106.547
  O      -74.759     -16.169    -105.591
  H      -74.203     -18.598    -106.269
  H      -72.776     -17.612    -102.500
  H      -73.365     -18.769    -103.719
  H      -74.308     -17.298    -103.351
  H      -72.739      -8.410    -111.732
  H      -73.248      -8.851    -110.119
  H      -74.342      -9.053    -111.467

 3  4  5  6  7  8  9  10  11  12  23  26  30  31 0
 6-311+G(2d,p)
 ****
 33  35  36  37  38 0
 6-311+G(2d,p)
 ****
 1  2  13  14  15  16  17  18  19  20  21  22  24  25 0
 3-21G
 ****
 27  28  29  32  34  39  40  41  42  43  44  45  46  47  48  49 0
 3-21G
 ****


