%nproc=1
%NoSave
%Mem=1900MB
#P OB98/GEN NMR

erre ene a

0 1
  C      816.535     149.893     229.391
  O      816.092     150.583     230.548
  H      816.462     150.562     228.533
  H      815.889     149.023     229.215
  H      817.570     149.570     229.513
  P      816.337     149.853     231.952
  C      813.799     149.805     232.617
  O      815.115     150.258     232.915
  C      812.793     150.940     232.814
  O      812.536     151.161     234.217
  C      813.282     152.289     232.326
  O      813.294     152.390     230.910
  C      812.263     153.215     232.979
  O      811.067     153.327     232.198
  C      811.986     152.492     234.319
  N      812.524     153.233     235.453
  C      812.064     154.549     235.582
  O      811.244     154.996     234.779
  N      812.577     155.327     236.586
  C      813.489     154.846     237.377
  N      813.973     155.680     238.338
  C      814.001     153.465     237.279
  C      813.482     152.719     236.298
  O      817.568     150.675     232.561
  O      816.568     148.389     231.861
  H      810.886     152.431     231.845
  H      817.450     151.636     232.530
  H      814.751     153.109     237.964
  H      813.800     151.688     236.146
  H      810.904     152.377     234.472
  H      812.663     154.229     233.093
  H      814.274     152.520     232.747
  H      811.853     150.657     232.329
  H      813.633     156.635     238.344
  H      813.532     148.951     233.250
  H      814.738     155.434     238.957
  H      813.789     149.464     231.578
  P      814.313     153.368     230.155
  C      812.454     154.876     229.217
  O      813.521     153.989     228.903
  O      815.640     152.772     229.802
  O      814.418     154.624     231.145
  H      813.571     155.076     231.321
  H      812.002     155.225     228.312
  H      812.834     155.709     229.771
  H      811.723     154.361     229.805

 6  7  8  9  10  11  12  13  14  15  16  26  30  31  32  33  35 0
 6-311+G(2d,p)
 ****
 37  38 0
 6-311+G(2d,p)
 ****
 1  2  3  4  5  17  18  19  20  21  22  23  24  25 0
 3-21G
 ****
 27  28  29  34  36  39  40  41  42  43  44  45  46 0
 3-21G
 ****


