%nproc=1
%NoSave
%Mem=1900MB
#P OB98/GEN NMR

erre ene a

0 1
  C     -472.619    -135.953    -370.344
  O     -472.395    -136.289    -368.994
  P     -472.436    -137.825    -368.527
  C     -470.466    -137.606    -366.891
  O     -471.848    -137.923    -367.038
  C     -470.149    -137.244    -365.435
  O     -470.439    -135.849    -365.172
  C     -470.978    -138.012    -364.421
  O     -470.568    -139.370    -364.303
  C     -470.762    -137.158    -363.170
  O     -469.510    -137.475    -362.551
  C     -470.738    -135.739    -363.769
  N     -471.982    -135.008    -363.530
  C     -472.008    -134.163    -362.421
  O     -471.042    -134.117    -361.650
  N     -473.117    -133.393    -362.215
  C     -474.165    -133.556    -362.955
  N     -475.221    -132.725    -362.734
  C     -474.242    -134.555    -364.040
  C     -473.113    -135.233    -364.281
  O     -471.845    -138.797    -369.495
  O     -473.996    -138.120    -368.312
  H     -474.238    -138.948    -368.788
  H     -469.562    -138.407    -362.272
  H     -475.158    -134.705    -364.595
  H     -473.058    -135.978    -365.076
  H     -469.902    -135.170    -363.331
  H     -471.540    -137.321    -362.417
  H     -472.050    -137.985    -364.700
  H     -469.075    -137.410    -365.263
  H     -475.132    -132.041    -361.999
  H     -470.225    -136.753    -367.538
  H     -475.935    -132.539    -363.439
  H     -469.866    -138.456    -367.210
  P     -471.719    -140.470    -364.185
  C     -470.131    -142.429    -364.794
  O     -471.005    -141.870    -363.840
  O     -472.200    -140.669    -365.708
  O     -472.861    -140.088    -363.289
  H     -473.169    -140.817    -365.725
  H     -469.474    -143.152    -364.289
  H     -469.506    -141.664    -365.261
  H     -470.703    -142.946    -365.562
  H     -472.553    -134.892    -370.463
  H     -473.593    -136.285    -370.637
  H     -471.881    -136.428    -370.957

 3  4  5  6  7  8  9  10  11  12  13  24  27  28  29  30  32 0
 6-311+G(2d,p)
 ****
 34  35 0
 6-311+G(2d,p)
 ****
 1  2  14  15  16  17  18  19  20  21  22  23  25  26 0
 3-21G
 ****
 31  33  36  37  38  39  40  41  42  43  44  45  46 0
 3-21G
 ****


