%nproc=1
%NoSave
%Mem=1900MB
#P OB98/GEN NMR

erre ene a

0 1
  C      204.722      93.833    -109.964
  O      204.242      94.947    -109.238
  H      205.442      94.181    -110.710
  H      203.894      93.340    -110.482
  H      205.222      93.119    -109.302
  P      203.379      94.697    -107.909
  C      201.105      94.433    -109.099
  O      202.122      93.794    -108.340
  C      199.719      93.926    -108.684
  O      199.617      92.511    -109.040
  C      199.437      94.039    -107.168
  O      198.030      94.268    -107.014
  C      199.817      92.646    -106.696
  O      199.352      92.387    -105.400
  C      199.228      91.811    -107.839
  N      199.695      90.428    -107.851
  C      198.836      89.467    -108.382
  O      197.730      89.721    -108.851
  N      199.295      88.175    -108.341
  C      200.493      87.760    -107.835
  O      200.863      86.591    -107.847
  C      201.345      88.820    -107.263
  C      200.915      90.086    -107.297
  O      203.042      95.914    -107.115
  O      204.280      93.671    -107.065
  H      204.793      94.164    -106.395
  H      199.605      91.482    -105.119
  H      198.687      87.465    -108.721
  H      202.293      88.524    -106.833
  H      201.513      90.894    -106.885
  H      198.133      91.821    -107.802
  H      200.909      92.542    -106.667
  H      199.998      94.847    -106.690
  H      198.958      94.456    -109.270
  H      201.279      94.213    -110.158
  H      201.167      95.518    -108.945
  P      197.371      95.735    -107.003
  C      196.856      95.684    -104.477
  O      197.510      96.369    -105.533
  O      195.972      95.768    -107.531
  O      198.335      96.644    -107.907
  H      197.796      97.294    -108.400
  H      197.024      96.204    -103.557
  H      197.245      94.690    -104.402
  H      195.806      95.642    -104.676

 6  7  8  9  10  11  12  13  14  15  16  27  31  32  33  34  35 0
 6-311+G(2d,p)
 ****
 36  37 0
 6-311+G(2d,p)
 ****
 1  2  3  4  5  17  18  19  20  21  22  23  24  25 0
 3-21G
 ****
 26  28  29  30  38  39  40  41  42  43  44  45 0
 3-21G
 ****


