%nproc=1
%NoSave
%Mem=1900MB
#P OB98/GEN NMR

erre ene a

0 1
  C      -60.719     -22.182      32.878
  O      -59.932     -21.411      33.770
  P      -58.742     -22.088      34.604
  C      -56.583     -21.510      33.335
  O      -57.604     -22.478      33.540
  C      -55.259     -22.189      32.991
  O      -54.801     -22.931      34.146
  C      -55.364     -23.170      31.829
  O      -54.156     -23.113      31.065
  C      -55.443     -24.533      32.493
  O      -54.959     -25.567      31.620
  C      -54.605     -24.303      33.754
  N      -54.740     -29.114      35.538
  C      -54.235     -28.593      34.399
  N      -54.257     -27.310      33.977
  C      -54.831     -26.521      34.899
  C      -55.387     -26.907      36.109
  C      -55.331     -28.276      36.421
  N      -55.837     -28.803      37.590
  N      -55.914     -25.818      36.775
  C      -55.659     -24.794      35.991
  N      -54.997     -25.165      34.851
  O      -59.155     -23.200      35.504
  O      -58.081     -20.881      35.414
  H      -55.606     -25.653      30.890
  H      -57.816     -21.176      36.306
  H      -53.751     -29.303      33.734
  H      -55.940     -23.771      36.194
  H      -53.536     -24.452      33.560
  H      -56.487     -24.761      32.739
  H      -56.225     -22.973      31.181
  H      -54.512     -21.414      32.780
  H      -56.462     -20.935      34.257
  H      -55.642     -29.773      37.782
  H      -56.117     -28.162      38.319
  H      -56.885     -20.825      32.536
  P      -54.329     -22.767      29.501
  C      -53.158     -20.461      29.206
  O      -54.355     -21.167      29.440
  O      -55.482     -23.493      28.891
  O      -52.893     -23.187      28.930
  H      -52.203     -23.151      29.628
  H      -53.372     -19.389      29.239
  H      -52.762     -20.705      28.217
  H      -52.417     -20.698      29.974
  H      -61.456     -21.556      32.420
  H      -61.205     -22.967      33.419
  H      -60.091     -22.605      32.122

 3  4  5  6  7  8  9  10  11  12  22  25  29  30  31  32 0
 6-311+G(2d,p)
 ****
 33  36  37 0
 6-311+G(2d,p)
 ****
 1  2  13  14  15  16  17  18  19  20  21  23  24  26 0
 3-21G
 ****
 27  28  34  35  38  39  40  41  42  43  44  45  46  47  48 0
 3-21G
 ****


