%nproc=1
%NoSave
%Mem=1900MB
#P OB98/GEN NMR

erre ene a

0 1
  C     -260.113    -106.398     -56.785
  O     -260.685    -105.563     -55.799
  H     -260.551    -107.396     -56.694
  H     -259.032    -106.479     -56.644
  H     -260.330    -106.012     -57.784
  P     -260.149    -104.059     -55.669
  C     -261.860    -103.261     -57.438
  O     -260.490    -103.337     -57.058
  C     -262.000    -102.625     -58.819
  O     -263.387    -102.574     -59.209
  C     -261.493    -101.190     -58.897
  O     -260.081    -101.159     -58.917
  C     -262.176    -100.723     -60.173
  O     -261.485    -101.208     -61.334
  C     -263.562    -101.401     -60.039
  N     -264.589    -100.524     -59.486
  C     -265.906    -100.801     -59.868
  O     -266.145    -101.729     -60.641
  N     -266.911    -100.003     -59.378
  C     -266.636     -99.048     -58.548
  N     -267.676     -98.299     -58.097
  C     -265.265     -98.744     -58.093
  C     -264.300     -99.506     -58.604
  O     -258.729    -103.899     -55.221
  O     -261.171    -103.373     -54.644
  H     -260.582    -100.837     -61.287
  H     -260.825    -103.419     -53.734
  H     -265.083     -97.943     -57.391
  H     -263.264     -99.349     -58.321
  H     -263.910    -101.757     -61.018
  H     -262.209     -99.636     -60.252
  H     -261.888    -100.602     -58.061
  H     -261.478    -103.266     -59.541
  H     -268.602     -98.558     -58.422
  H     -262.368    -102.647     -56.688
  H     -267.603     -97.643     -57.333
  H     -262.316    -104.257     -57.435
  P     -259.268     -99.790     -58.735
  C     -259.567    -100.017     -56.192
  O     -259.744     -99.183     -57.326
  O     -259.349     -98.845     -59.886
  O     -257.778    -100.276     -58.414
  H     -257.325    -100.571     -59.244
  H     -259.918     -99.509     -55.318
  H     -258.528    -100.248     -56.078
  H     -260.121    -100.923     -56.325

 6  7  8  9  10  11  12  13  14  15  16  26  30  31  32  33  35 0
 6-311+G(2d,p)
 ****
 37  38 0
 6-311+G(2d,p)
 ****
 1  2  3  4  5  17  18  19  20  21  22  23  24  25 0
 3-21G
 ****
 27  28  29  34  36  39  40  41  42  43  44  45  46 0
 3-21G
 ****


