%nproc=1
%NoSave
%Mem=1900MB
#P OB98/GEN NMR

erre ene a

0 1
  C     -197.231    -199.814    -317.647
  O     -197.970    -199.934    -318.865
  P     -198.436    -201.412    -319.301
  C     -200.137    -200.635    -321.131
  O     -198.911    -201.289    -320.830
  C     -199.922    -199.125    -321.287
  O     -198.854    -198.871    -322.250
  C     -201.161    -198.356    -321.759
  O     -201.152    -197.090    -321.076
  C     -200.899    -198.150    -323.238
  O     -201.644    -197.067    -323.774
  C     -199.379    -197.953    -323.231
  N     -198.776    -198.170    -324.547
  C     -198.695    -197.067    -325.390
  O     -199.182    -195.970    -325.106
  N     -198.087    -197.282    -326.597
  C     -197.626    -198.481    -327.059
  O     -197.085    -198.620    -328.150
  C     -197.838    -199.635    -326.170
  C     -198.395    -199.429    -324.972
  O     -199.792    -201.570    -318.473
  O     -197.397    -202.452    -319.034
  H     -200.307    -200.746    -318.405
  H     -201.412    -196.247    -323.285
  H     -197.992    -196.489    -327.214
  H     -197.541    -200.613    -326.528
  H     -198.588    -200.256    -324.304
  H     -199.125    -196.944    -322.897
  H     -201.167    -199.062    -323.795
  H     -202.096    -198.879    -321.546
  H     -199.585    -198.727    -320.323
  H     -200.855    -200.807    -320.325
  H     -200.559    -201.071    -322.042
  P     -202.448    -196.680    -320.208
  C     -201.595    -194.943    -318.454
  O     -202.215    -195.182    -319.694
  O     -202.193    -197.563    -318.892
  O     -203.757    -196.980    -320.861
  H     -201.286    -197.489    -318.558
  H     -201.318    -193.880    -318.399
  H     -200.683    -195.539    -318.341
  H     -202.288    -195.164    -317.637
  H     -196.986    -198.786    -317.478
  H     -196.331    -200.388    -317.718
  H     -197.823    -200.178    -316.833

 3  4  5  6  7  8  9  10  11  12  13  24  28  29  30  31  32 0
 6-311+G(2d,p)
 ****
 33  34 0
 6-311+G(2d,p)
 ****
 1  2  14  15  16  17  18  19  20  21  22  23  25  26  27 0
 3-21G
 ****
 35  36  37  38  39  40  41  42  43  44  45 0
 3-21G
 ****


