%nproc=1
%NoSave
%Mem=1900MB
#P OB98/GEN NMR

erre ene a

0 1
  C     -230.941    -203.813      -2.853
  O     -230.558    -203.007      -3.950
  H     -231.361    -203.169      -2.075
  H     -230.082    -204.346      -2.440
  H     -231.709    -204.528      -3.163
  P     -229.683    -203.684      -5.114
  C     -227.980    -201.813      -4.595
  O     -228.671    -202.537      -5.611
  C     -226.466    -201.866      -4.820
  O     -226.023    -203.236      -4.889
  C     -226.019    -201.236      -6.129
  O     -226.160    -199.833      -6.173
  C     -224.647    -201.861      -6.341
  O     -223.598    -201.163      -5.679
  C     -224.832    -203.258      -5.702
  N     -224.875    -204.317      -6.704
  C     -223.802    -204.362      -7.585
  O     -222.870    -203.558      -7.562
  N     -223.851    -205.343      -8.536
  C     -224.871    -206.230      -8.716
  O     -224.876    -207.061      -9.616
  C     -225.992    -206.118      -7.769
  C     -225.945    -205.181      -6.819
  O     -230.459    -204.328      -6.222
  O     -228.724    -204.695      -4.328
  H     -222.777    -201.674      -5.825
  H     -228.327    -205.358      -4.942
  H     -223.076    -205.397      -9.178
  H     -226.821    -206.804      -7.883
  H     -226.761    -205.076      -6.109
  H     -223.998    -203.476      -5.022
  H     -224.386    -201.901      -7.401
  H     -226.659    -201.626      -6.930
  H     -225.973    -201.392      -3.964
  H     -228.216    -202.279      -3.634
  H     -228.328    -200.775      -4.581
  P     -227.343    -199.093      -6.950
  C     -226.059    -197.199      -8.180
  O     -226.943    -197.545      -7.120
  O     -228.737    -199.430      -6.531
  O     -227.141    -199.660      -8.448
  H     -228.026    -199.742      -8.852
  H     -225.885    -196.143      -8.169
  H     -226.497    -197.479      -9.115
  H     -225.130    -197.715      -8.053

 6  7  8  9  10  11  12  13  14  15  16  26  31  32  33  34  35 0
 6-311+G(2d,p)
 ****
 36  37 0
 6-311+G(2d,p)
 ****
 1  2  3  4  5  17  18  19  20  21  22  23  24  25 0
 3-21G
 ****
 27  28  29  30  38  39  40  41  42  43  44  45 0
 3-21G
 ****


