%nproc=1
%NoSave
%Mem=1900MB
#P OB98/GEN NMR

erre ene a

0 1
  C      335.285     528.479      18.391
  O      333.927     528.249      18.708
  H      335.841     528.662      19.319
  H      335.373     529.360      17.749
  H      335.718     527.608      17.891
  P      332.981     527.756      17.509
  C      333.251     525.301      18.309
  O      333.361     526.221      17.231
  C      332.049     524.372      18.089
  O      332.130     523.752      16.786
  C      331.949     523.235      19.100
  O      331.325     523.659      20.309
  C      331.061     522.267      18.332
  O      329.689     522.716      18.388
  C      331.612     522.398      16.906
  N      332.750     518.096      14.479
  C      331.541     518.757      14.594
  N      330.478     518.184      13.982
  N      331.379     519.875      15.253
  C      332.524     520.327      15.821
  C      333.783     519.766      15.775
  C      333.943     518.533      15.034
  O      334.996     517.917      14.880
  N      334.695     520.516      16.463
  C      333.990     521.523      16.944
  N      332.667     521.450      16.590
  O      333.578     528.516      16.227
  O      331.529     528.038      17.679
  H      329.428     522.711      19.325
  H      332.841     528.755      15.632
  H      332.813     517.229      13.963
  H      334.393     522.325      17.546
  H      330.830     522.275      16.146
  H      331.083     521.256      18.748
  H      330.525     517.298      13.500
  H      332.922     522.769      19.285
  H      329.590     518.666      14.029
  H      331.143     524.990      18.099
  H      333.110     525.854      19.241
  H      334.172     524.710      18.374
  P      331.677     522.844      21.644
  C      333.447     524.639      22.263
  O      333.180     523.261      22.029
  O      331.837     521.336      21.123
  O      330.665     522.959      22.739
  H      331.686     520.713      21.857
  H      334.481     524.765      22.507
  H      332.843     524.986      23.075
  H      333.217     525.201      21.382

 6  7  8  9  10  11  12  13  14  15  26  29  33  34 0
 6-311+G(2d,p)
 ****
 36  38  39  40  41 0
 6-311+G(2d,p)
 ****
 1  2  3  4  5  16  17  18  19  20  21  22  23  24  25 0
 3-21G
 ****
 27  28  30  31  32  35  37  42  43  44  45  46  47 0
 3-21G
 ****
 48  49 0
 3-21G
 ****


