%nproc=1
%NoSave
%Mem=1900MB
#P OB98/GEN NMR

erre ene a

0 1
  C      -82.177    -228.756    1167.810
  O      -82.031    -229.599    1166.686
  H      -81.179    -228.516    1168.199
  H      -82.748    -229.263    1168.584
  H      -82.676    -227.832    1167.516
  P      -83.383    -230.165    1166.028
  C      -82.000    -230.199    1163.814
  O      -82.877    -230.892    1164.693
  C      -82.040    -230.823    1162.422
  O      -83.389    -230.824    1161.898
  C      -81.203    -230.079    1161.365
  O      -79.820    -230.355    1161.464
  C      -81.808    -230.663    1160.101
  O      -81.338    -232.018    1159.915
  C      -83.320    -230.656    1160.448
  N      -83.993    -229.415    1160.046
  C      -84.303    -229.293    1158.682
  O      -84.015    -230.188    1157.889
  N      -84.905    -228.131    1158.254
  C      -85.193    -227.192    1159.091
  N      -85.786    -226.073    1158.594
  C      -84.903    -227.290    1160.546
  C      -84.301    -228.415    1160.946
  O      -84.094    -228.845    1165.463
  O      -84.240    -231.004    1166.912
  H      -80.398    -231.960    1159.696
  H      -84.878    -229.093    1164.903
  H      -85.153    -226.468    1161.212
  H      -84.065    -228.547    1161.993
  H      -83.829    -231.512    1160.007
  H      -81.558    -230.118    1159.197
  H      -81.400    -229.006    1161.388
  H      -81.736    -231.861    1162.513
  H      -85.914    -226.025    1157.590
  H      -80.979    -230.260    1164.227
  H      -85.917    -225.236    1159.152
  H      -82.297    -229.144    1163.750
  P      -78.814    -229.257    1160.855
  C      -77.073    -229.844    1162.685
  O      -77.335    -229.677    1161.294
  O      -79.106    -227.939    1161.731
  O      -78.991    -228.992    1159.387
  H      -79.020    -227.128    1161.187
  H      -76.049    -230.123    1162.824
  H      -77.708    -230.610    1163.078
  H      -77.265    -228.924    1163.197

 6  7  8  9  10  11  12  13  14  15  16  26  30  31  32  33  35 0
 6-311+G(2d,p)
 ****
 37  38 0
 6-311+G(2d,p)
 ****
 1  2  3  4  5  17  18  19  20  21  22  23  24  25 0
 3-21G
 ****
 27  28  29  34  36  39  40  41  42  43  44  45  46 0
 3-21G
 ****


