%nproc=1
%NoSave
%Mem=1900MB
#P OB98/GEN NMR

erre ene a

0 1
  C       90.141    -224.357     -29.572
  O       89.552    -223.308     -30.340
  P       90.214    -222.627     -31.622
  C       89.437    -224.405     -33.398
  O       89.389    -223.067     -32.919
  C       88.361    -224.649     -34.469
  O       87.051    -224.365     -33.889
  C       88.524    -223.728     -35.686
  O       88.311    -224.388     -36.931
  C       87.609    -222.561     -35.356
  O       87.241    -221.790     -36.488
  C       86.470    -223.250     -34.609
  N       81.960    -221.796     -32.706
  C       82.231    -222.656     -33.752
  N       81.169    -223.196     -34.386
  N       83.440    -222.956     -34.148
  C       84.412    -222.292     -33.479
  C       84.265    -221.399     -32.441
  C       82.925    -221.117     -31.976
  O       82.629    -220.373     -31.040
  N       85.484    -220.934     -32.008
  C       86.360    -221.525     -32.798
  N       85.756    -222.367     -33.703
  O       91.702    -222.709     -31.710
  O       89.825    -221.067     -31.465
  H       86.704    -221.035     -36.178
  H       90.564    -220.558     -31.859
  H       81.009    -221.618     -32.429
  H       87.435    -221.391     -32.748
  H       85.715    -223.653     -35.289
  H       88.161    -221.891     -34.680
  H       80.215    -222.916     -34.214
  H       89.557    -223.365     -35.764
  H       81.367    -223.645     -35.281
  H       88.384    -225.706     -34.757
  H       89.248    -225.043     -32.528
  H       90.433    -224.645     -33.775
  P       89.342    -224.615     -38.130
  C       91.647    -225.651     -37.683
  O       90.254    -225.885     -37.785
  O       90.374    -223.397     -38.029
  O       88.718    -224.651     -39.489
  H       90.332    -222.859     -38.841
  H       92.167    -226.612     -37.715
  H       91.869    -225.158     -36.736
  H       91.995    -225.032     -38.516
  H       89.484    -224.624     -28.771
  H       91.076    -224.024     -29.171
  H       90.305    -225.209     -30.198

 3  4  5  6  7  8  9  10  11  12  23  26  30  31 0
 6-311+G(2d,p)
 ****
 33  35  36  37  38 0
 6-311+G(2d,p)
 ****
 1  2  13  14  15  16  17  18  19  20  21  22  24  25 0
 3-21G
 ****
 27  28  29  32  34  39  40  41  42  43  44  45  46  47  48  49 0
 3-21G
 ****


