%nproc=1
%NoSave
%Mem=1900MB
#P OB98/GEN NMR

erre ene a

0 1
  C      442.595      50.186     668.957
  O      441.939      49.881     667.734
  P      441.342      51.126     666.898
  C      439.208      51.455     668.360
  O      439.757      51.083     667.108
  C      437.677      51.480     668.268
  O      437.247      52.575     667.429
  C      437.072      50.212     667.667
  O      436.968      49.198     668.645
  C      435.726      50.733     667.173
  O      434.770      50.806     668.256
  C      436.089      52.136     666.664
  N      436.425      55.181     662.637
  C      435.920      55.428     663.902
  N      435.492      56.691     664.138
  N      435.859      54.531     664.849
  C      436.307      53.314     664.471
  C      436.814      52.937     663.233
  C      436.933      53.952     662.220
  O      437.456      53.807     661.120
  N      437.152      51.607     663.219
  C      436.879      51.194     664.443
  N      436.386      52.193     665.241
  O      441.551      50.666     665.380
  O      441.978      52.447     667.195
  H      434.577      49.903     668.570
  H      442.350      51.080     664.998
  H      436.463      55.916     661.957
  H      437.045      50.189     664.800
  H      435.288      52.863     666.850
  H      435.283      50.076     666.411
  H      435.489      57.423     663.449
  H      437.667      49.869     666.811
  H      435.122      56.892     665.059
  H      437.283      51.654     669.276
  H      439.567      52.452     668.632
  H      439.536      50.737     669.125
  P      437.658      47.784     668.331
  C      436.348      47.148     666.184
  O      436.585      46.892     667.555
  O      437.768      47.097     669.769
  O      438.995      47.886     667.673
  H      438.594      46.573     669.823
  H      436.043      46.210     665.697
  H      437.242      47.531     665.677
  H      435.534      47.875     666.083
  H      442.942      49.281     669.411
  H      441.910      50.676     669.617
  H      443.427      50.831     668.764

 3  4  5  6  7  8  9  10  11  12  23  26  30  31 0
 6-311+G(2d,p)
 ****
 33  35  36  37  38 0
 6-311+G(2d,p)
 ****
 1  2  13  14  15  16  17  18  19  20  21  22  24  25 0
 3-21G
 ****
 27  28  29  32  34  39  40  41  42  43  44  45  46  47  48  49 0
 3-21G
 ****


