%nproc=1
%NoSave
%Mem=1900MB
#P OB98/GEN NMR

erre ene a

0 1
  C     -162.923    -143.979    -239.683
  O     -162.935    -143.522    -241.025
  P     -163.615    -144.486    -242.118
  C     -163.438    -142.724    -244.039
  O     -163.067    -144.003    -243.545
  C     -163.029    -142.602    -245.508
  O     -161.664    -142.153    -245.615
  C     -163.113    -143.906    -246.288
  O     -164.442    -144.153    -246.706
  C     -162.147    -143.634    -247.440
  O     -162.780    -142.854    -248.468
  C     -161.038    -142.829    -246.742
  N     -157.253    -145.849    -248.194
  C     -158.312    -145.336    -248.921
  N     -158.333    -145.638    -250.238
  N     -159.253    -144.593    -248.410
  C     -159.110    -144.383    -247.079
  C     -158.115    -144.851    -246.248
  C     -157.052    -145.630    -246.840
  O     -156.043    -146.022    -246.253
  N     -158.321    -144.452    -244.949
  C     -159.411    -143.720    -245.010
  N     -159.918    -143.629    -246.276
  O     -165.143    -144.026    -242.106
  O     -163.450    -145.951    -241.861
  H     -162.102    -142.519    -249.083
  H     -165.684    -144.627    -241.559
  H     -156.547    -146.402    -248.645
  H     -159.865    -143.214    -244.164
  H     -160.625    -142.048    -247.392
  H     -161.798    -144.554    -247.913
  H     -157.654    -146.223    -250.698
  H     -162.736    -144.741    -245.682
  H     -159.101    -145.271    -250.789
  H     -163.669    -141.835    -245.973
  H     -162.929    -141.950    -243.459
  H     -164.521    -142.596    -243.927
  P     -165.122    -145.531    -246.237
  C     -167.508    -144.552    -245.896
  O     -166.675    -145.443    -246.617
  O     -165.113    -145.411    -244.637
  O     -164.417    -146.759    -246.696
  H     -164.958    -146.291    -244.247
  H     -168.317    -144.218    -246.549
  H     -166.952    -143.681    -245.533
  H     -167.937    -145.085    -245.040
  H     -162.446    -143.250    -239.062
  H     -162.386    -144.903    -239.626
  H     -163.928    -144.129    -239.348

 3  4  5  6  7  8  9  10  11  12  23  26  30  31 0
 6-311+G(2d,p)
 ****
 33  35  36  37  38 0
 6-311+G(2d,p)
 ****
 1  2  13  14  15  16  17  18  19  20  21  22  24  25 0
 3-21G
 ****
 27  28  29  32  34  39  40  41  42  43  44  45  46  47  48  49 0
 3-21G
 ****


