%nproc=1
%NoSave
%Mem=1900MB
#P OB98/GEN NMR

erre ene a

0 1
  C      582.445    -384.034     258.396
  O      583.132    -383.296     259.413
  P      583.291    -384.021     260.839
  C      581.056    -383.053     261.771
  O      581.811    -384.214     261.455
  C      580.084    -383.339     262.917
  O      579.131    -384.358     262.562
  C      580.750    -383.851     264.184
  O      581.340    -382.802     264.945
  C      579.558    -384.464     264.923
  O      578.848    -383.417     265.625
  C      578.701    -385.008     263.768
  N      577.015    -389.592     265.173
  C      576.620    -388.329     265.591
  N      575.610    -388.284     266.492
  N      577.169    -387.217     265.165
  C      578.134    -387.419     264.236
  C      578.615    -388.608     263.754
  C      578.028    -389.827     264.261
  O      578.374    -390.978     263.952
  N      579.615    -388.403     262.817
  C      579.711    -387.091     262.724
  N      578.840    -386.444     263.588
  O      583.931    -382.886     261.770
  O      584.138    -385.252     260.806
  H      578.049    -383.826     266.018
  H      584.449    -383.273     262.486
  H      576.573    -390.410     265.538
  H      580.384    -386.570     262.061
  H      577.634    -384.781     263.904
  H      579.861    -385.199     265.672
  H      575.091    -389.089     266.809
  H      581.479    -384.652     263.952
  H      575.284    -387.366     266.788
  H      579.550    -382.410     263.142
  H      580.485    -382.738     260.890
  H      581.738    -382.234     262.025
  P      582.933    -382.655     264.869
  C      583.354    -383.498     267.283
  O      583.545    -383.723     265.891
  O      583.191    -381.240     265.569
  O      583.503    -382.699     263.478
  H      583.992    -380.819     265.207
  H      582.324    -383.168     267.493
  H      584.055    -382.754     267.631
  H      583.532    -384.440     267.807
  H      582.403    -383.451     257.499
  H      581.451    -384.254     258.725
  H      582.968    -384.948     258.204

 3  4  5  6  7  8  9  10  11  12  23  26  30  31  33  0
 6-311+G(2d,p)
 ****
 35  36  37  38 0
 6-311+G(2d,p)
 ****
 1  2  13  14  15  16  17  18  19  20  21  22  24  25  27  28  29 0
 3-21G
 ****
 32  34  39  40  41  42  43  44  45  46  47  48  49 0
 3-21G
 ****


