%nproc=1
%NoSave
%Mem=1900MB
#P OB98/GEN NMR

erre ene a

0 1
  C      528.904    -354.410      87.286
  O      528.265    -355.090      86.227
  H      529.959    -354.706      87.305
  H      528.450    -354.689      88.240
  H      528.846    -353.328      87.146
  P      526.741    -354.737      85.886
  C      525.744    -356.106      87.832
  O      525.910    -354.816      87.259
  C      525.318    -355.992      89.302
  O      524.922    -357.309      89.770
  C      526.424    -355.480      90.227
  O      525.848    -354.637      91.225
  C      526.964    -356.742      90.865
  O      527.556    -356.495      92.143
  C      525.713    -357.620      90.934
  N      525.908    -361.740      93.859
  C      525.425    -360.470      94.133
  N      524.940    -360.264      95.379
  N      525.420    -359.495      93.266
  C      525.921    -359.852      92.056
  C      526.423    -361.065      91.657
  C      526.440    -362.136      92.638
  O      526.870    -363.271      92.459
  N      526.850    -361.029      90.354
  C      526.605    -359.794      89.966
  N      526.050    -359.035      90.962
  O      526.150    -355.520      84.754
  O      526.758    -353.171      85.565
  H      527.842    -357.363      92.498
  H      526.681    -353.010      84.604
  H      525.894    -362.449      94.569
  H      526.807    -359.398      88.980
  H      525.109    -357.415      91.830
  H      527.726    -357.191      90.216
  H      524.887    -360.979      96.088
  H      527.194    -354.928      89.684
  H      524.554    -359.353      95.596
  H      524.429    -355.353      89.359
  H      526.698    -356.637      87.768
  H      524.988    -356.658      87.264
  P      526.076    -353.049      91.135
  C      527.750    -352.904      93.087
  O      527.544    -352.709      91.694
  O      524.981    -352.212      91.703
  O      526.232    -352.806      89.560
  H      525.842    -351.934      89.337
  H      528.758    -352.646      93.338
  H      527.572    -353.930      93.334
  H      527.075    -352.283      93.638

 6  7  8  9  10  11  12  13  14  15  26  29  33  34 0
 6-311+G(2d,p)
 ****
 36  38  39  40  41 0
 6-311+G(2d,p)
 ****
 1  2  3  4  5  16  17  18  19  20  21  22  23  24  25 0
 3-21G
 ****
 27  28  30  31  32  35  37  42  43  44  45  46  47 0
 3-21G
 ****
 48  49 0
 3-21G
 ****


