%nproc=1
%NoSave
%Mem=1900MB
#P OB98/GEN NMR

erre ene a

0 1
  C     -295.892     489.757      34.139
  O     -296.907     488.821      33.828
  H     -295.729     490.398      33.270
  H     -294.960     489.235      34.374
  H     -296.199     490.377      34.984
  P     -297.315     487.795      34.993
  C     -299.781     488.294      34.380
  O     -298.799     488.239      35.407
  C     -301.026     487.513      34.790
  O     -300.722     486.114      34.940
  C     -301.630     487.949      36.120
  O     -302.429     489.108      35.957
  C     -302.469     486.730      36.464
  O     -303.706     486.763      35.722
  C     -301.593     485.565      35.965
  N     -301.424     481.924      39.579
  C     -302.448     482.418      38.852
  N     -302.425     483.415      37.941
  C     -301.189     483.917      37.808
  C     -300.047     483.515      38.486
  C     -300.193     482.459      39.401
  N     -299.143     481.951      40.137
  N     -298.956     484.261      38.092
  C     -299.421     485.064      37.156
  N     -300.775     484.919      36.973
  O     -296.331     487.651      36.101
  O     -297.583     486.462      34.143
  H     -303.510     487.136      34.843
  H     -298.023     486.677      33.301
  H     -303.413     481.951      39.020
  H     -298.822     485.753      36.573
  H     -302.193     484.778      35.499
  H     -302.736     486.692      37.523
  H     -300.860     488.081      36.885
  H     -301.760     487.600      33.979
  H     -299.379     487.886      33.446
  H     -299.367     481.318      40.888
  H     -298.257     482.432      40.091
  H     -300.031     489.345      34.218
  P     -302.280     490.352      36.957
  C     -300.346     491.618      35.831
  O     -300.735     490.786      36.917
  O     -302.825     490.131      38.324
  O     -303.014     491.559      36.210
  H     -303.496     492.111      36.854
  H     -299.302     491.841      35.909
  H     -300.908     492.528      35.860
  H     -300.535     491.111      34.908

 6  7  8  9  10  11  12  13  14  15  25  28  32  33  34  35 0
 6-311+G(2d,p)
 ****
 36  39  40 0
 6-311+G(2d,p)
 ****
 1  2  3  4  5  16  17  18  19  20  21  22  23  24 0
 3-21G
 ****
 26  27  29  30  31  37  38  41  42  43  44  45  46  47 0
 3-21G
 ****
 48 0
 3-21G
 ****


