%nproc=1
%NoSave
%Mem=1900MB
#P OB98/GEN NMR

erre ene a

0 1
  C     -407.304    -280.675     272.530
  O     -407.012    -280.763     271.120
  P     -407.568    -282.018     270.285
  C     -407.129    -284.608     270.221
  O     -406.734    -283.328     270.705
  C     -406.021    -285.640     270.465
  O     -404.813    -285.267     269.767
  C     -405.607    -285.776     271.930
  O     -406.543    -286.533     272.676
  C     -404.249    -286.460     271.788
  O     -404.408    -287.880     271.624
  C     -403.700    -285.813     270.497
  N     -402.671    -284.808     270.752
  C     -401.488    -285.263     271.315
  O     -401.295    -286.439     271.631
  N     -400.523    -284.318     271.522
  C     -400.655    -282.969     271.305
  O     -399.755    -282.167     271.525
  C     -401.966    -282.538     270.795
  C     -402.901    -283.466     270.548
  O     -406.993    -281.724     268.815
  O     -409.054    -282.180     270.251
  H     -404.670    -288.238     272.502
  H     -407.583    -282.128     268.149
  H     -399.633    -284.631     271.891
  H     -402.121    -281.475     270.618
  H     -403.872    -283.158     270.176
  H     -403.274    -286.592     269.844
  H     -403.613    -286.305     272.661
  H     -405.461    -284.778     272.377
  H     -406.360    -286.605     270.068
  H     -407.330    -284.532     269.151
  H     -408.061    -284.909     270.726
  P     -407.566    -285.703     273.599
  C     -407.339    -284.587     275.961
  O     -406.742    -285.359     274.936
  O     -408.596    -286.857     274.034
  O     -408.194    -284.535     272.893
  H     -408.152    -287.722     274.124
  H     -408.417    -284.773     276.028
  H     -407.165    -283.521     275.760
  H     -406.876    -284.849     276.913
  H     -406.863    -279.786     272.931
  H     -406.901    -281.530     273.032
  H     -408.364    -280.644     272.673

 3  4  5  6  7  8  9  10  11  12  13  23  28  29  30  31  32 0
 6-311+G(2d,p)
 ****
 33  34 0
 6-311+G(2d,p)
 ****
 1  2  14  15  16  17  18  19  20  21  22  24  25  26 0
 3-21G
 ****
 27  35  36  37  38  39  40  41  42  43  44  45 0
 3-21G
 ****


