%nproc=1
%NoSave
%Mem=1900MB
#P OB98/GEN NMR

erre ene a

0 1
  C     -118.383      -9.311    -801.776
  O     -118.642      -7.910    -801.612
  P     -119.764      -7.238    -802.538
  C     -121.358      -6.496    -800.616
  O     -120.501      -6.100    -801.682
  C     -121.765      -5.277    -799.780
  O     -120.717      -4.886    -798.867
  C     -122.087      -4.041    -800.617
  O     -123.415      -4.077    -801.122
  C     -121.943      -2.940    -799.573
  O     -123.152      -2.882    -798.775
  C     -120.765      -3.438    -798.731
  N     -117.766       0.628    -798.390
  C     -118.993       0.379    -797.815
  N     -119.500       1.347    -797.029
  N     -119.677      -0.729    -797.997
  C     -119.043      -1.621    -798.792
  C     -117.822      -1.500    -799.423
  C     -117.085      -0.264    -799.220
  O     -115.997       0.007    -799.717
  N     -117.514      -2.616    -800.149
  C     -118.535      -3.427    -799.950
  N     -119.499      -2.861    -799.147
  O     -120.877      -8.387    -802.629
  O     -119.286      -6.823    -803.888
  H     -123.889      -2.728    -799.399
  H     -121.371      -8.303    -803.467
  H     -117.285       1.493    -798.221
  H     -118.622      -4.418    -800.361
  H     -120.890      -3.208    -797.663
  H     -121.825      -1.952    -800.024
  H     -119.004       2.205    -796.809
  H     -121.345      -3.898    -801.410
  H     -120.390       1.178    -796.575
  H     -122.661      -5.554    -799.193
  H     -120.857      -7.228    -799.979
  H     -122.233      -7.005    -801.035
  P     -123.862      -2.915    -802.133
  C     -123.895      -4.295    -804.332
  O     -124.647      -3.642    -803.318
  O     -122.479      -2.467    -802.792
  O     -124.568      -1.765    -801.489
  H     -122.508      -1.519    -803.016
  H     -124.587      -4.865    -804.961
  H     -123.166      -4.975    -803.900
  H     -123.388      -3.552    -804.952
  H     -117.615      -9.614    -801.095
  H     -118.064      -9.500    -802.780
  H     -119.276      -9.865    -801.576

 3  4  5  6  7  8  9  10  11  12  23  26  30  31 0
 6-311+G(2d,p)
 ****
 33  35  36  37  38 0
 6-311+G(2d,p)
 ****
 1  2  13  14  15  16  17  18  19  20  21  22  24  25 0
 3-21G
 ****
 27  28  29  32  34  39  40  41  42  43  44  45  46  47  48  49 0
 3-21G
 ****


