%nproc=1
%NoSave
%Mem=1900MB
#P OB98/GEN NMR

erre ene a

0 1
  C     -205.193    -286.520    -118.526
  O     -204.891    -285.980    -119.797
  H     -205.359    -285.697    -117.825
  H     -204.351    -287.121    -118.169
  H     -206.097    -287.133    -118.571
  P     -204.812    -287.017    -121.019
  C     -206.458    -285.941    -122.713
  O     -206.238    -286.964    -121.754
  C     -207.780    -285.233    -122.436
  O     -207.741    -284.582    -121.144
  C     -208.135    -284.148    -123.447
  O     -208.739    -284.691    -124.613
  C     -209.132    -283.331    -122.642
  O     -210.405    -284.008    -122.612
  C     -208.494    -283.341    -121.247
  N     -208.139    -278.653    -119.354
  C     -209.234    -279.489    -119.454
  N     -210.406    -279.003    -118.993
  N     -209.190    -280.692    -119.967
  C     -207.954    -281.040    -120.398
  C     -206.793    -280.302    -120.351
  C     -206.856    -278.978    -119.777
  O     -205.912    -278.205    -119.643
  N     -205.735    -280.997    -120.876
  C     -206.258    -282.146    -121.257
  N     -207.604    -282.220    -120.995
  O     -204.825    -288.447    -120.294
  O     -203.623    -286.871    -121.907
  H     -210.727    -284.042    -123.532
  H     -204.252    -289.059    -120.795
  H     -208.231    -277.731    -118.963
  H     -205.709    -282.952    -121.723
  H     -209.242    -283.343    -120.446
  H     -209.306    -282.341    -123.066
  H     -210.521    -278.067    -118.633
  H     -207.267    -283.526    -123.691
  H     -211.216    -279.608    -119.024
  H     -208.569    -285.995    -122.393
  H     -206.491    -286.388    -123.714
  H     -205.631    -285.227    -122.668
  P     -207.985    -284.465    -126.015
  C     -207.874    -286.757    -127.230
  O     -207.242    -285.850    -126.334
  O     -206.783    -283.485    -125.621
  O     -208.833    -283.905    -127.103
  H     -206.481    -282.991    -126.410
  H     -207.264    -287.629    -127.344
  H     -208.004    -286.286    -128.182
  H     -208.829    -287.038    -126.838

 6  7  8  9  10  11  12  13  14  15  26  29  33  34 0
 6-311+G(2d,p)
 ****
 36  38  39  40  41 0
 6-311+G(2d,p)
 ****
 1  2  3  4  5  16  17  18  19  20  21  22  23  24  25 0
 3-21G
 ****
 27  28  30  31  32  35  37  42  43  44  45  46  47 0
 3-21G
 ****
 48  49 0
 3-21G
 ****


