%nproc=1
%NoSave
%Mem=1900MB
#P OB98/GEN NMR

erre ene a

0 1
  C      175.175    -190.466    -132.282
  O      174.533    -191.559    -132.917
  P      173.575    -191.330    -134.175
  C      173.747    -193.888    -134.734
  O      172.945    -192.734    -134.593
  C      172.833    -195.095    -134.995
  O      172.330    -195.616    -133.749
  C      171.638    -194.718    -135.868
  O      171.908    -194.991    -137.233
  C      170.523    -195.569    -135.289
  O      170.590    -196.907    -135.812
  C      170.877    -195.562    -133.784
  N      170.444    -194.408    -132.973
  C      169.087    -194.120    -132.854
  O      168.199    -194.793    -133.365
  N      168.781    -192.993    -132.128
  C      169.678    -192.184    -131.497
  O      169.417    -191.063    -131.068
  C      171.049    -192.689    -131.432
  C      171.371    -193.747    -132.179
  O      174.602    -191.015    -135.360
  O      172.555    -190.250    -134.018
  H      169.784    -197.372    -135.521
  H      174.671    -190.055    -135.511
  H      167.808    -192.701    -132.155
  H      171.768    -192.154    -130.824
  H      172.394    -194.117    -132.176
  H      170.499    -196.461    -133.288
  H      169.545    -195.182    -135.570
  H      171.382    -193.659    -135.722
  H      173.422    -195.886    -135.477
  H      174.338    -194.046    -133.831
  H      174.447    -193.759    -135.566
  P      171.044    -194.271    -138.370
  C      172.237    -195.485    -140.285
  O      171.017    -195.302    -139.596
  O      171.460    -192.879    -138.712
  O      169.554    -194.315    -137.781
  H      169.337    -193.462    -137.356
  H      172.133    -196.334    -140.970
  H      173.049    -195.691    -139.582
  H      172.467    -194.588    -140.868
  H      175.768    -190.825    -131.467
  H      174.437    -189.784    -131.913
  H      175.804    -189.964    -132.987

 3  4  5  6  7  8  9  10  11  12  13  23  28  29  30  31  32 0
 6-311+G(2d,p)
 ****
 33  34 0
 6-311+G(2d,p)
 ****
 1  2  14  15  16  17  18  19  20  21  22  24  25  26  27 0
 3-21G
 ****
 35  36  37  38  39  40  41  42  43  44  45 0
 3-21G
 ****


