%nproc=1
%NoSave
%Mem=1900MB
#P OB98/GEN NMR

erre ene a

0 1
  C      -82.966     104.306     -13.125
  O      -83.077     104.902     -14.403
  H      -82.743     105.087     -12.393
  H      -82.155     103.573     -13.118
  H      -83.910     103.827     -12.853
  P      -83.369     103.916     -15.634
  C      -84.009     104.527     -18.067
  O      -84.177     104.818     -16.686
  C      -84.612     105.636     -18.925
  O      -86.046     105.533     -18.936
  C      -84.288     107.046     -18.447
  O      -83.014     107.451     -18.922
  C      -85.405     107.839     -19.107
  O      -85.066     108.099     -20.483
  C      -86.598     106.871     -19.036
  N      -90.343     109.824     -17.138
  C      -89.523     109.988     -18.198
  N      -88.515     109.192     -18.612
  C      -88.395     108.120     -17.811
  C      -89.159     107.821     -16.692
  C      -90.179     108.729     -16.362
  N      -91.012     108.559     -15.279
  N      -88.743     106.639     -16.116
  C      -87.787     106.202     -16.909
  N      -87.513     107.079     -17.928
  O      -83.985     102.605     -15.280
  O      -81.916     103.824     -16.303
  H      -84.276     108.671     -20.476
  H      -81.484     104.696     -16.303
  H      -89.698     110.881     -18.792
  H      -87.275     105.252     -16.802
  H      -87.205     106.907     -19.949
  H      -85.570     108.808     -18.632
  H      -84.376     107.137     -17.358
  H      -84.267     105.487     -19.957
  H      -84.484     103.570     -18.312
  H      -91.581     109.345     -15.007
  H      -90.802     107.812     -14.633
  H      -82.934     104.438     -18.259
  P      -82.460     108.932     -18.648
  C      -80.119     109.958     -18.368
  O      -80.872     108.758     -18.497
  O      -83.143     109.651     -17.537
  O      -82.608     109.676     -20.054
  H      -82.548     110.643     -19.927
  H      -79.080     109.719     -18.275
  H      -80.442     110.490     -17.498
  H      -80.268     110.568     -19.235

 6  7  8  9  10  11  12  13  14  15  25  28  32  33  34  35 0
 6-311+G(2d,p)
 ****
 36  39  40 0
 6-311+G(2d,p)
 ****
 1  2  3  4  5  16  17  18  19  20  21  22  23  24 0
 3-21G
 ****
 26  27  29  30  31  37  38  41  42  43  44  45  46  47 0
 3-21G
 ****
 48 0
 3-21G
 ****


