%nproc=1
%NoSave
%Mem=1900MB
#P OB98/GEN NMR

erre ene a

0 1
  C       61.829      14.435    -112.188
  O       62.762      14.536    -111.132
  H       62.284      14.763    -113.127
  H       61.526      13.389    -112.292
  H       60.944      15.039    -111.971
  P       63.330      16.000    -110.805
  C       65.021      15.221    -108.992
  O       64.833      15.779    -110.286
  C       66.358      14.490    -108.940
  O       66.298      13.282    -109.732
  C       67.532      15.288    -109.494
  O       68.043      16.215    -108.552
  C       68.525      14.172    -109.764
  O       69.130      13.751    -108.527
  C       67.613      13.068    -110.313
  N       68.610      10.472    -114.608
  C       68.871      10.204    -113.311
  N       68.576      10.949    -112.226
  C       67.947      12.079    -112.583
  C       67.621      12.492    -113.864
  C       67.974      11.626    -114.912
  N       67.724      11.904    -116.238
  N       67.009      13.730    -113.837
  C       66.938      14.040    -112.558
  N       67.500      13.079    -111.761
  O       62.545      16.420    -109.474
  O       63.189      17.009    -111.894
  H       68.406      13.438    -107.954
  H       62.562      17.389    -109.367
  H       69.386       9.266    -113.120
  H       66.491      14.942    -112.161
  H       67.943      12.065    -110.019
  H       69.335      14.471    -110.431
  H       67.276      15.778    -110.442
  H       66.543      14.196    -107.899
  H       64.213      14.513    -108.785
  H       68.179      11.312    -116.917
  H       67.389      12.825    -116.481
  H       64.995      16.022    -108.248
  P       68.771      17.525    -109.126
  C       70.188      17.899    -106.977
  O       70.182      17.607    -108.372
  O       67.930      18.720    -108.480
  O       68.824      17.607    -110.616
  H       67.982      19.521    -109.035
  H       71.197      17.919    -106.621
  H       69.640      17.145    -106.452
  H       69.732      18.852    -106.810

 6  7  8  9  10  11  12  13  14  15  25  28  32  33  34  35 0
 6-311+G(2d,p)
 ****
 36  39  40 0
 6-311+G(2d,p)
 ****
 1  2  3  4  5  16  17  18  19  20  21  22  23  24 0
 3-21G
 ****
 26  27  29  30  31  37  38  41  42  43  44  45  46  47 0
 3-21G
 ****
 48 0
 3-21G
 ****


