%nproc=1
%NoSave
%Mem=1900MB
#P OB98/GEN NMR

erre ene a

0 1
  C      109.700     222.422      91.049
  O      110.300     221.988      89.850
  P      109.631     222.322      88.433
  C      108.655     220.345      87.107
  O      108.477     221.227      88.211
  C      109.484     219.136      87.528
  O      108.826     218.394      88.589
  C      109.690     218.107      86.426
  O      110.465     218.495      85.313
  C      110.174     216.908      87.223
  O      111.565     217.011      87.526
  C      109.327     217.036      88.515
  N      108.245     216.054      88.556
  C      108.633     214.722      88.637
  O      109.808     214.354      88.674
  N      107.619     213.803      88.644
  C      106.287     214.078      88.533
  O      105.433     213.201      88.503
  C      105.938     215.502      88.436
  C      106.915     216.413      88.450
  O      110.585     222.458      87.295
  O      108.784     223.648      88.733
  H      112.045     217.091      86.679
  H      108.098     223.548      89.417
  H      107.879     212.830      88.689
  H      104.889     215.756      88.358
  H      106.683     217.471      88.376
  H      109.959     216.887      89.401
  H      110.032     215.969      86.676
  H      108.705     217.843      86.018
  H      110.435     219.495      87.928
  H      109.179     220.876      86.307
  H      107.674     220.042      86.722
  P      110.464     217.707      83.918
  C      112.758     216.556      83.560
  O      111.440     216.443      84.050
  O      110.572     218.534      82.680
  O      109.016     217.007      83.949
  H      108.685     216.922      83.036
  H      113.265     215.594      83.690
  H      113.308     217.318      84.116
  H      112.751     216.802      82.494
  H      110.293     222.103      91.880
  H      108.719     222.003      91.129
  H      109.633     223.490      91.048

 3  4  5  6  7  8  9  10  11  12  13  23  28  29  30  31  32 0
 6-311+G(2d,p)
 ****
 33  34 0
 6-311+G(2d,p)
 ****
 1  2  14  15  16  17  18  19  20  21  22  24  25  26  27 0
 3-21G
 ****
 35  36  37  38  39  40  41  42  43  44  45 0
 3-21G
 ****


