%nproc=1
%NoSave
%Mem=1900MB
#P OB98/GEN NMR

erre ene a

0 1
  C     -446.217      99.294     178.281
  O     -446.958      99.899     179.322
  H     -445.306      98.866     178.702
  H     -445.949     100.036     177.529
  H     -446.802      98.493     177.818
  P     -448.361     100.571     178.909
  C     -450.009      98.624     179.444
  O     -449.477      99.893     179.839
  C     -450.333      97.801     180.687
  O     -449.121      97.530     181.431
  C     -451.271      98.506     181.676
  O     -452.628      98.453     181.256
  C     -450.981      97.719     182.944
  O     -451.740      96.502     183.002
  C     -449.490      97.406     182.828
  N     -447.528      98.128     187.485
  C     -448.238      97.107     186.950
  N     -448.710      96.981     185.699
  C     -448.368      98.058     184.953
  C     -447.641      99.168     185.361
  C     -447.220      99.180     186.699
  N     -446.513     100.234     187.249
  N     -447.526     100.077     184.320
  C     -448.161      99.521     183.305
  N     -448.668      98.291     183.638
  O     -448.642      99.957     177.460
  O     -448.364     102.066     178.894
  H     -451.722      96.137     182.091
  H     -448.390     100.608     176.775
  H     -448.448      96.271     187.629
  H     -448.276      99.958     182.320
  H     -449.259      96.377     183.129
  H     -451.238      98.309     183.830
  H     -450.945      99.542     181.816
  H     -450.753      96.827     180.368
  H     -449.266      98.085     178.836
  H     -450.912      98.791     178.848
  H     -446.306     100.208     188.225
  H     -446.379     101.073     186.696
  P     -453.603      99.586     181.817
  C     -453.303     101.537     180.100
  O     -454.099     100.451     180.558
  O     -452.636     100.594     182.599
  O     -454.713      99.085     182.695
  H     -453.091     100.954     183.387
  H     -453.779     101.999     179.260
  H     -452.339     101.175     179.809
  H     -453.192     102.254     180.886

 6  7  8  9  10  11  12  13  14  15  25  28  32  33  34  35 0
 6-311+G(2d,p)
 ****
 36  37  40 0
 6-311+G(2d,p)
 ****
 1  2  3  4  5  16  17  18  19  20  21  22  23  24 0
 3-21G
 ****
 26  27  29  30  31  38  39 41  42  43  44  45  46  47  48 0
 3-21G
 ****


