%nproc=1
%NoSave
%Mem=1900MB
#P OB98/GEN NMR

erre ene a

0 1
  C      831.919     693.913    -488.438
  O      830.994     692.849    -488.367
  H      832.929     693.498    -488.384
  H      831.776     694.585    -487.593
  H      831.821     694.463    -489.375
  P      829.456     693.134    -488.719
  C      829.559     691.425    -490.644
  O      829.258     692.758    -490.262
  C      828.385     690.784    -491.390
  O      827.242     690.707    -490.490
  C      827.943     691.566    -492.628
  O      827.419     690.623    -493.571
  C      826.813     692.419    -492.076
  O      825.983     692.928    -493.096
  C      826.155     691.423    -491.109
  N      825.294     692.080    -490.125
  C      824.141     692.683    -490.611
  O      823.849     692.708    -491.824
  N      823.346     693.301    -489.691
  C      823.612     693.428    -488.359
  O      822.877     694.022    -487.586
  C      824.871     692.800    -487.901
  C      825.637     692.170    -488.796
  O      828.949     694.491    -488.332
  O      828.657     691.973    -487.968
  H      826.427     693.682    -493.552
  H      827.770     692.282    -487.706
  H      822.498     693.741    -490.035
  H      825.126     692.892    -486.854
  H      826.566     691.697    -488.489
  H      825.544     690.696    -491.660
  H      827.213     693.279    -491.525
  H      828.731     692.162    -493.077
  H      828.654     689.747    -491.650
  H      829.776     690.855    -489.727
  H      830.452     691.415    -491.281
  P      828.270     690.133    -494.850
  C      827.545     687.711    -495.357
  O      828.515     688.558    -494.736
  O      829.508     690.936    -495.101
  O      827.252     690.250    -496.086
  H      827.745     690.419    -496.908
  H      827.820     686.687    -495.211
  H      827.504     687.924    -496.405
  H      826.585     687.888    -494.920

 6  7  8  9  10  11  12  13  14  15  16  26  31  32  33  34  35 0
 6-311+G(2d,p)
 ****
 36  37 0
 6-311+G(2d,p)
 ****
 1  2  3  4  5  17  18  19  20  21  22  23  24  25 0
 3-21G
 ****
 27  28  29  30  38  39  40  41  42  43  44  45 0
 3-21G
 ****


