%nproc=1
%NoSave
%Mem=1900MB
#P OB98/GEN NMR

erre ene a

0 1
  C      -76.665       3.480     127.845
  O      -78.027       3.462     127.453
  P      -79.148       3.364     128.593
  C      -79.352       0.807     128.159
  O      -79.184       1.847     129.112
  C      -79.240      -0.561     128.834
  O      -78.011      -0.608     129.624
  C      -80.405      -0.891     129.781
  O      -80.630      -2.306     129.713
  C      -79.834      -0.529     131.142
  O      -80.528      -1.142     132.217
  C      -78.388      -1.003     130.961
  N      -77.478      -0.447     131.964
  C      -76.755      -1.349     132.740
  O      -76.838      -2.572     132.632
  N      -75.961      -0.797     133.709
  C      -75.889       0.527     134.035
  O      -75.248       0.945     134.992
  C      -76.675       1.433     133.181
  C      -77.420       0.914     132.201
  O      -80.516       3.520     127.776
  O      -79.027       4.383     129.678
  H      -80.064      -0.901     133.040
  H      -80.857       4.430     127.852
  H      -75.421      -1.435     134.273
  H      -76.626       2.493     133.397
  H      -78.025       1.556     131.569
  H      -78.342      -2.100     130.996
  H      -79.887       0.557     131.281
  H      -81.325      -0.345     129.548
  H      -79.152      -1.329     128.054
  H      -78.579       0.896     127.393
  H      -80.327       0.917     127.666
  P      -82.149      -2.825     129.633
  C      -82.260      -3.062     132.234
  O      -82.816      -2.519     131.058
  O      -81.926      -4.412     129.644
  O      -82.887      -2.333     128.430
  H      -81.256      -4.690     130.293
  H      -81.171      -3.132     132.170
  H      -82.677      -4.057     132.407
  H      -82.521      -2.421     133.081
  H      -76.045       3.548     126.976
  H      -76.435       2.581     128.378
  H      -76.487       4.325     128.477

 3  4  5  6  7  8  9  10  11  12  13  23  28  29  30  31  32 0
 6-311+G(2d,p)
 ****
 33  34 0
 6-311+G(2d,p)
 ****
 1  2  14  15  16  17  18  19  20  21  22  24  25  26 0
 3-21G
 ****
 27  35  36  37  38  39  40  41  42  43  44  45 0
 3-21G
 ****


