%nproc=1
%NoSave
%Mem=1900MB
#P OB98/GEN NMR

erre ene a

0 1
  C     -194.800    -570.805      10.763
  O     -194.847    -571.714       9.675
  P     -196.001    -572.828       9.707
  C     -196.329    -575.003      11.111
  O     -195.435    -574.036      10.594
  C     -195.606    -575.891      12.126
  O     -195.193    -575.103      13.268
  C     -196.449    -577.031      12.677
  O     -196.455    -578.115      11.774
  C     -195.742    -577.326      13.994
  O     -194.573    -578.147      13.776
  C     -195.342    -575.918      14.467
  N     -196.603    -575.283      19.323
  C     -195.662    -576.105      18.755
  N     -194.912    -576.847      19.607
  N     -195.461    -576.213      17.459
  C     -196.289    -575.426      16.730
  C     -197.277    -574.580      17.174
  C     -197.446    -574.436      18.605
  O     -198.205    -573.640      19.162
  N     -197.930    -573.969      16.135
  C     -197.305    -574.423      15.064
  N     -196.296    -575.303      15.367
  O     -195.991    -573.400       8.211
  O     -197.351    -572.336      10.122
  H     -194.196    -578.391      14.643
  H     -196.702    -572.991       7.681
  H     -196.700    -575.227      20.320
  H     -197.543    -574.142      14.047
  H     -194.375    -575.918      14.979
  H     -196.379    -577.870      14.693
  H     -195.023    -576.846      20.608
  H     -197.472    -576.686      12.881
  H     -194.219    -577.465      19.202
  H     -194.697    -576.273      11.646
  H     -196.701    -575.622      10.293
  H     -197.187    -574.492      11.579
  P     -197.488    -579.311      12.057
  C     -197.992    -580.771      14.145
  O     -197.047    -580.001      13.437
  O     -197.111    -580.404      10.949
  O     -198.927    -578.924      11.972
  H     -197.916    -580.852      10.644
  H     -197.465    -581.558      14.698
  H     -198.722    -581.251      13.468
  H     -198.529    -580.139      14.852
  H     -193.991    -570.119      10.620
  H     -194.652    -571.346      11.674
  H     -195.721    -570.264      10.815

 3  4  5  6  7  8  9  10  11  12  23  26  30  31 0
 6-311+G(2d,p)
 ****
 33  35  36  37  38 0
 6-311+G(2d,p)
 ****
 1  2  13  14  15  16  17  18  19  20  21  22  24  25 0
 3-21G
 ****
 27  28  29  32  34  39  40  41  42  43  44  45  46  47  48  49 0
 3-21G
 ****


