%nproc=1
%NoSave
%Mem=1900MB
#P OB98/GEN NMR

erre ene a

0 1
  C      123.931    -323.408     -10.115
  O      122.562    -323.214      -9.821
  H      124.036    -323.610     -11.186
  H      124.318    -324.264      -9.554
  H      124.504    -322.510      -9.866
  P      122.186    -322.904      -8.294
  C      121.572    -320.384      -8.176
  O      121.098    -321.715      -8.328
  C      120.681    -319.410      -8.952
  O      120.833    -319.668     -10.378
  C      119.187    -319.529      -8.615
  O      118.606    -318.218      -8.623
  C      118.631    -320.323      -9.788
  O      117.233    -320.112      -9.966
  C      119.503    -319.796     -10.925
  N      116.872    -321.032     -15.037
  C      116.644    -320.055     -14.087
  N      115.544    -319.285     -14.254
  N      117.425    -319.849     -13.058
  C      118.507    -320.671     -13.030
  C      118.836    -321.686     -13.900
  C      117.951    -321.916     -15.023
  O      118.088    -322.782     -15.885
  N      119.996    -322.316     -13.505
  C      120.356    -321.682     -12.404
  N      119.488    -320.675     -12.079
  O      123.499    -322.183      -7.723
  O      121.797    -324.088      -7.474
  H      117.053    -319.161      -9.819
  H      123.609    -322.360      -6.772
  H      116.234    -321.158     -15.799
  H      121.229    -321.915     -11.806
  H      119.177    -318.805     -11.273
  H      118.803    -321.395      -9.630
  H      114.916    -319.364     -15.037
  H      118.988    -320.013      -7.655
  H      115.370    -318.551     -13.573
  H      121.044    -318.392      -8.778
  H      122.597    -320.322      -8.557
  H      121.571    -320.120      -7.112
  P      118.171    -317.588      -7.213
  C      120.379    -316.935      -6.009
  O      119.265    -316.494      -6.776
  O      118.426    -318.802      -6.187
  O      116.748    -317.133      -7.168
  H      117.567    -319.163      -5.892
  H      121.016    -316.103      -5.795
  H      120.925    -317.669      -6.563
  H      120.033    -317.365      -5.092

 6  7  8  9  10  11  12  13  14  15  26  29  33  34 0
 6-311+G(2d,p)
 ****
 36  38  39  40  41 0
 6-311+G(2d,p)
 ****
 1  2  3  4  5  16  17  18  19  20  21  22  23  24  25 0
 3-21G
 ****
 27  28  30  31  32  35  37  42  43  44  45  46  47 0
 3-21G
 ****
 48  49 0
 3-21G
 ****


