%nproc=1
%NoSave
%Mem=1900MB
#P OB98/GEN NMR

erre ene a

0 1
  C      473.603     367.832      19.851
  O      473.772     367.479      18.476
  P      472.523     366.803      17.728
  C      471.877     368.755      16.126
  O      472.403     367.435      16.262
  C      471.964     369.208      14.666
  O      473.313     369.549      14.305
  C      471.545     368.130      13.679
  O      470.134     368.027      13.626
  C      472.175     368.628      12.386
  O      471.288     369.490      11.653
  C      473.418     369.407      12.874
  N      474.668     368.769      12.499
  C      474.905     368.645      11.124
  O      474.063     369.036      10.312
  N      476.067     368.043      10.709
  C      476.912     367.586      11.590
  N      478.043     367.003      11.118
  C      476.686     367.683      13.047
  C      475.557     368.272      13.426
  O      471.262     367.409      18.499
  O      472.532     365.306      17.770
  H      471.076     370.227      12.258
  H      470.537     366.761      18.526
  H      477.415     367.283      13.740
  H      475.314     368.389      14.477
  H      473.417     370.426      12.463
  H      472.427     367.794      11.719
  H      471.990     367.169      13.963
  H      471.329     370.101      14.542
  H      478.162     366.960      10.108
  H      472.432     369.441      16.768
  H      478.756     366.616      11.708
  H      470.841     368.761      16.480
  P      469.504     366.571      13.423
  C      468.752     366.058      15.822
  O      468.341     366.463      14.529
  O      470.633     365.624      14.038
  O      469.128     366.170      12.029
  H      470.414     364.687      13.895
  H      467.923     366.226      16.521
  H      469.610     366.643      16.162
  H      468.998     364.990      15.822
  H      474.507     368.269      20.221
  H      473.373     366.955      20.419
  H      472.802     368.536      19.943

 3  4  5  6  7  8  9  10  11  12  13  21  23  27  28  29  30  32 0
 6-311+G(2d,p)
 ****
 34  35 0
 6-311+G(2d,p)
 ****
 1  2  14  15  16  17  18  19  20  22  24  25  26 0
 3-21G
 ****
 31  33  36  37  38  39  40  41  42  43  44  45  46 0
 3-21G
 ****


