%nproc=1
%NoSave
%Mem=1900MB
#P OB98/GEN NMR

erre ene a

0 1
  C     -679.749       9.472    -516.962
  O     -678.601      10.298    -516.972
  H     -679.897       9.089    -515.947
  H     -679.611       8.622    -517.637
  H     -680.636      10.040    -517.255
  P     -678.200      10.938    -518.387
  C     -675.969       9.631    -518.101
  O     -677.024      10.017    -518.979
  C     -674.956       8.759    -518.831
  O     -675.604       7.597    -519.407
  C     -674.223       9.463    -519.969
  O     -673.140      10.231    -519.490
  C     -673.779       8.274    -520.818
  O     -672.584       7.663    -520.283
  C     -674.983       7.321    -520.690
  N     -675.805       6.678    -525.625
  C     -674.692       6.372    -524.863
  N     -673.626       5.857    -525.523
  N     -674.637       6.551    -523.569
  C     -675.764       7.097    -523.060
  C     -676.931       7.437    -523.704
  C     -676.994       7.195    -525.129
  O     -677.965       7.392    -525.863
  N     -677.856       7.945    -522.845
  C     -677.240       7.963    -521.667
  N     -675.960       7.467    -521.758
  O     -677.435      12.289    -517.979
  O     -679.336      11.205    -519.315
  H     -671.938       8.357    -520.071
  H     -677.578      12.955    -518.683
  H     -675.799       6.502    -526.617
  H     -677.674       8.306    -520.741
  H     -674.670       6.273    -520.686
  H     -673.550       8.571    -521.839
  H     -673.498       6.017    -526.516
  H     -674.921      10.080    -520.550
  H     -672.807       5.653    -524.972
  H     -674.233       8.395    -518.079
  H     -676.396       9.064    -517.260
  H     -675.486      10.533    -517.711
  P     -672.431      11.261    -520.504
  C     -670.058      10.290    -520.013
  O     -671.074      10.554    -520.987
  O     -671.911      12.434    -519.547
  O     -673.326      11.750    -521.597
  H     -671.717      13.221    -520.083
  H     -669.222       9.819    -520.488
  H     -670.449       9.643    -519.256
  H     -669.743      11.210    -519.567

 6  7  8  9  10  11  12  13  14  15  26  29  33  34 0
 6-311+G(2d,p)
 ****
 36  38  39  40  41 0
 6-311+G(2d,p)
 ****
 1  2  3  4  5  16  17  18  19  20  21  22  23  24  25 0
 3-21G
 ****
 27  28  30  31  32  35  37  42  43  44  45  46  47 0
 3-21G
 ****
 48  49 0
 3-21G
 ****


