%nproc=1
%NoSave
%Mem=1900MB
#P OB98/GEN NMR

erre ene a

0 1
  C      131.885    -167.985      78.118
  O      131.792    -168.669      76.884
  H      130.892    -167.628      78.399
  H      132.555    -167.129      78.021
  H      132.254    -168.656      78.904
  P      133.084    -169.479      76.389
  C      132.234    -171.922      76.697
  O      132.549    -170.873      75.788
  C      130.905    -172.570      76.304
  O      129.859    -171.548      76.360
  C      130.888    -173.160      74.886
  O      130.084    -174.348      74.900
  C      130.179    -172.092      74.071
  O      129.575    -172.576      72.878
  C      129.163    -171.579      75.101
  N      128.638    -170.254      74.757
  C      127.328    -170.184      74.283
  O      126.556    -171.141      74.209
  N      126.916    -168.939      73.876
  C      127.664    -167.797      73.877
  O      127.242    -166.713      73.476
  C      129.040    -167.935      74.379
  C      129.456    -169.135      74.787
  O      133.782    -169.913      77.763
  O      134.012    -168.732      75.488
  H      134.416    -169.228      78.058
  H      130.277    -173.027      72.359
  H      125.969    -168.873      73.529
  H      129.666    -167.053      74.385
  H      130.477    -169.280      75.146
  H      128.328    -172.283      75.198
  H      130.888    -171.297      73.796
  H      131.881    -173.392      74.486
  H      130.649    -173.332      77.051
  H      132.154    -171.514      77.706
  H      133.039    -172.667      76.680
  P      130.675    -175.649      74.166
  C      130.124    -177.092      76.292
  O      129.977    -176.903      74.884
  O      132.181    -175.661      74.718
  O      130.542    -175.595      72.679
  H      132.246    -175.346      75.642
  H      129.594    -177.972      76.591
  H      129.727    -176.244      76.809
  H      131.161    -177.202      76.531

 6  7  8  9  10  11  12  13  14  15  16  27  31  32  33  34  35 0
 6-311+G(2d,p)
 ****
 36  37 0
 6-311+G(2d,p)
 ****
 1  2  3  4  5  17  18  19  20  21  22  23  24  25 0
 3-21G
 ****
 26  28  29  30  38  39  40  41  42  43  44  45 0
 3-21G
 ****


