%nproc=1
%NoSave
%Mem=1900MB
#P OB98/GEN NMR

erre ene a

0 1
  C     -892.780     487.178     -95.006
  O     -892.580     486.601     -96.287
  P     -893.100     487.323     -97.617
  C     -895.510     486.513     -97.195
  O     -894.410     486.508     -98.078
  C     -896.830     486.740     -97.951
  O     -896.930     488.109     -98.401
  C     -896.990     485.882     -99.208
  O     -897.330     484.552     -98.865
  C     -898.050     486.662     -99.960
  O     -899.350     486.314     -99.479
  C     -897.720     488.118     -99.626
  N     -897.000     488.813    -100.698
  C     -897.810     489.513    -101.599
  O     -899.050     489.505    -101.469
  N     -897.210     490.157    -102.646
  C     -895.910     490.083    -102.805
  N     -895.390     490.768    -103.877
  C     -895.040     489.340    -101.899
  C     -895.660     488.718    -100.885
  O     -892.070     487.528     -98.677
  O     -893.730     488.685     -97.048
  H     -900.000     486.847    -100.047
  H     -893.010     489.323     -96.784
  H     -893.990     489.304    -102.060
  H     -895.070     488.129    -100.162
  H     -898.620     488.670     -99.398
  H     -898.040     486.433    -101.056
  H     -896.030     485.905     -99.767
  H     -897.660     486.541     -97.254
  H     -896.060     491.235    -104.483
  H     -895.370     487.335     -96.473
  H     -894.420     490.744    -104.098
  H     -895.550     485.584     -96.638
  P     -896.170     483.437     -98.749
  C     -895.780     483.309    -101.294
  O     -896.180     482.582    -100.119
  O     -896.200     482.620     -97.510
  O     -894.820     484.284     -98.854
  H     -894.190     483.975     -98.181
  H     -895.540     482.558    -102.058
  H     -894.930     483.944    -101.094
  H     -896.630     483.870    -101.652
  H     -892.359     486.539     -94.258
  H     -893.828     487.295     -94.827
  H     -892.303     488.135     -94.967

 3  4  5  6  7  8  9  10  11  12  13  23  27  28  29  30  32 0
 6-311+G(2d,p)
 ****
 34  35 0
 6-311+G(2d,p)
 ****
 1  2  14  15  16  17  18  19  20  21  22  24  25  26 0
 3-21G
 ****
 31  33  36  37  38  39  40  41  42  43  44  45  46 0
 3-21G
 ****


