%nproc=1
%NoSave
%Mem=1900MB
#P OB98/GEN NMR

erre ene a

0 1
  C      210.697    -133.358    -110.871
  O      209.739    -133.066    -109.871
  H      210.282    -134.116    -111.544
  H      211.615    -133.752    -110.421
  H      210.921    -132.457    -111.448
  P      210.172    -131.997    -108.755
  C      211.001    -133.757    -107.064
  O      211.367    -132.713    -107.958
  C      212.245    -134.490    -106.554
  O      212.807    -135.268    -107.643
  C      213.341    -133.542    -106.047
  O      213.967    -134.130    -104.904
  C      214.333    -133.498    -107.193
  O      215.654    -133.171    -106.777
  C      214.189    -134.901    -107.793
  N      216.755    -137.548    -111.320
  C      216.432    -137.823    -110.040
  N      215.729    -137.069    -109.172
  C      215.306    -135.937    -109.765
  C      215.553    -135.515    -111.059
  C      216.326    -136.375    -111.862
  N      216.680    -136.092    -113.161
  N      214.985    -134.271    -111.289
  C      214.388    -133.959    -110.145
  N      214.568    -134.929    -109.193
  O      209.063    -131.472    -107.903
  O      210.941    -130.902    -109.630
  H      216.247    -133.220    -107.556
  H      211.539    -131.320    -110.280
  H      216.795    -138.779    -109.658
  H      213.834    -133.045    -109.962
  H      214.812    -135.639    -107.272
  H      214.014    -132.734    -107.923
  H      212.962    -132.553    -105.798
  H      211.945    -135.196    -105.778
  H      210.336    -134.475    -107.570
  H      217.222    -136.771    -113.665
  H      216.352    -135.235    -113.584
  H      210.457    -133.305    -106.233
  P      213.766    -133.414    -103.477
  C      215.973    -132.054    -103.462
  O      214.545    -132.005    -103.492
  O      214.017    -134.271    -102.284
  O      212.234    -132.950    -103.542
  H      211.835    -133.061    -102.651
  H      216.364    -131.058    -103.476
  H      216.330    -132.589    -104.317
  H      216.294    -132.551    -102.571

 6  7  8  9  10  11  12  13  14  15  25  28  32  33  34  35 0
 6-311+G(2d,p)
 ****
 36  39  40 0
 6-311+G(2d,p)
 ****
 1  2  3  4  5  16  17  18  19  20  21  22  23  24 0
 3-21G
 ****
 26  27  29  30  31  37  38  41  42  43  44  45  46  47 0
 3-21G
 ****
 48 0
 3-21G
 ****


