%nproc=1
%NoSave
%Mem=1900MB
#P OB98/GEN NMR

erre ene a

0 1
  C      533.697     -54.361     280.127
  O      533.723     -54.489     281.561
  P      533.927     -53.159     282.425
  C      531.568     -53.468     283.502
  O      532.469     -52.603     282.831
  C      530.432     -52.664     284.137
  O      530.938     -51.632     285.022
  C      529.552     -51.943     283.144
  O      528.569     -52.795     282.563
  C      528.881     -50.893     284.033
  O      527.794     -51.503     284.759
  C      530.010     -50.514     284.981
  N      530.024     -45.391     284.904
  C      529.118     -46.289     285.353
  N      529.170     -47.632     285.317
  C      530.324     -48.044     284.771
  C      531.351     -47.249     284.269
  C      531.170     -45.859     284.358
  N      532.099     -44.954     283.900
  N      532.371     -48.023     283.778
  C      531.991     -49.266     283.984
  N      530.751     -49.334     284.575
  O      534.436     -52.086     281.352
  O      534.880     -53.311     283.561
  H      528.176     -52.246     285.265
  H      535.066     -51.469     281.772
  H      528.213     -45.870     285.796
  H      532.568     -50.153     283.719
  H      529.653     -50.333     285.997
  H      528.462     -50.062     283.450
  H      530.154     -51.452     282.359
  H      529.812     -53.358     284.736
  H      532.093     -54.046     284.267
  H      531.907     -43.970     284.022
  H      532.957     -45.287     283.511
  H      531.168     -54.192     282.786
  P      527.902     -52.353     281.178
  C      528.720     -54.277     279.643
  O      528.858     -52.934     280.023
  O      528.162     -50.765     281.153
  O      526.460     -52.696     281.059
  H      527.451     -50.320     280.661
  H      529.214     -54.422     278.675
  H      527.670     -54.554     279.546
  H      529.211     -54.928     280.370
  H      533.555     -55.325     279.685
  H      534.624     -53.947     279.789
  H      532.893     -53.716     279.841

 3  4  5  6  7  8  9  10  11  12  22  25  29  30  31  32 0
 6-311+G(2d,p)
 ****
 33  36  37 0
 6-311+G(2d,p)
 ****
 1  2  13  14  15  16  17  18  19  20  21  23  24  26 0
 3-21G
 ****
 27  28  34  35  38  39  40  41  42  43  44  45  46  47  48 0
 3-21G
 ****


