%nproc=1
%NoSave
%Mem=1900MB
#P OB98/GEN NMR

erre ene a

0 1
  C      733.788    -336.234     -12.679
  O      733.167    -336.589     -13.921
  P      733.077    -338.144     -14.314
  C      730.778    -338.984     -13.483
  O      731.542    -338.507     -14.593
  C      729.263    -338.871     -13.769
  O      728.917    -337.475     -13.947
  C      728.811    -339.575     -15.053
  O      728.422    -340.947     -14.974
  C      727.544    -338.796     -15.384
  O      726.434    -339.308     -14.625
  C      727.858    -337.375     -14.927
  N      726.256    -333.888     -18.334
  C      725.611    -334.582     -17.367
  N      726.113    -335.485     -16.503
  C      727.425    -335.665     -16.692
  C      728.230    -335.023     -17.635
  C      727.590    -334.106     -18.496
  N      728.243    -333.407     -19.483
  N      729.537    -335.465     -17.548
  C      729.523    -336.354     -16.569
  N      728.278    -336.500     -16.008
  O      733.817    -339.088     -13.416
  O      733.705    -338.164     -15.794
  H      726.266    -340.209     -14.950
  H      734.231    -338.980     -15.900
  H      724.545    -334.372     -17.279
  H      730.383    -336.912     -16.238
  H      727.006    -336.880     -14.431
  H      727.255    -338.883     -16.443
  H      729.547    -339.449     -15.861
  H      728.706    -339.258     -12.911
  H      731.026    -338.382     -12.592
  H      727.716    -332.811     -20.079
  H      729.233    -333.597     -19.657
  H      731.096    -340.004     -13.275
  P      729.293    -342.107     -15.676
  C      729.927    -343.196     -13.377
  O      729.302    -343.332     -14.629
  O      730.658    -341.686     -16.136
  O      728.318    -342.614     -16.832
  H      727.526    -343.083     -16.516
  H      729.638    -344.047     -12.753
  H      729.616    -342.275     -12.874
  H      731.011    -343.208     -13.497
  H      733.770    -335.171     -12.562
  H      734.802    -336.576     -12.677
  H      733.256    -336.690     -11.871

 3  4  5  6  7  8  9  10  11  12  22  25  29  30  31  32 0
 6-311+G(2d,p)
 ****
 33  36  37 0
 6-311+G(2d,p)
 ****
 1  2  13  14  15  16  17  18  19  20  21  23  24  26 0
 3-21G
 ****
 27  28  34  35  38  39  40  41  42  43  44  45  46  47  48 0
 3-21G
 ****


