%nproc=1
%NoSave
%Mem=1900MB
#P OB98/GEN NMR

erre ene a

0 1
  C     -420.909     193.874     452.590
  O     -420.552     192.532     452.324
  H     -420.022     194.506     452.467
  H     -421.269     193.971     453.616
  H     -421.680     194.213     451.891
  P     -421.755     191.464     452.267
  C     -420.824     190.442     450.036
  O     -421.202     190.244     451.388
  C     -420.419     189.115     449.389
  O     -419.093     188.757     449.856
  C     -421.364     187.956     449.716
  O     -421.478     187.124     448.557
  C     -420.641     187.209     450.823
  O     -421.053     185.847     450.901
  C     -419.174     187.434     450.443
  N     -418.269     187.305     451.585
  C     -417.392     186.214     451.570
  O     -417.412     185.412     450.637
  N     -416.542     186.039     452.630
  C     -416.606     186.838     453.655
  N     -415.751     186.598     454.683
  C     -417.557     187.970     453.737
  C     -418.336     188.149     452.673
  O     -422.796     192.199     451.294
  O     -422.310     191.094     453.599
  H     -421.130     185.495     449.983
  H     -422.374     192.635     450.534
  H     -417.584     188.597     454.619
  H     -419.057     188.959     452.644
  H     -418.860     186.713     449.670
  H     -420.854     187.680     451.792
  H     -422.358     188.282     450.034
  H     -420.338     189.263     448.306
  H     -415.133     185.800     454.597
  H     -419.987     191.147     449.977
  H     -415.746     187.120     455.546
  H     -421.675     190.881     449.505
  P     -422.932     186.787     447.980
  C     -422.190     187.075     445.524
  O     -422.786     186.216     446.485
  O     -423.963     187.856     448.143
  O     -423.353     185.472     448.807
  H     -424.307     185.534     449.008
  H     -422.153     186.579     444.577
  H     -421.197     187.324     445.836
  H     -422.771     187.969     445.436

 6  7  8  9  10  11  12  13  14  15  16  26  30  31  32  33  35 0
 6-311+G(2d,p)
 ****
 37  38 0
 6-311+G(2d,p)
 ****
 1  2  3  4  5  17  18  19  20  21  22  23  24  25 0
 3-21G
 ****
 27  28  29  34  36  39  40  41  42  43  44  45  46 0
 3-21G
 ****


