%nproc=1
%NoSave
%Mem=1900MB
#P OB98/GEN NMR

erre ene a

0 1
  C       78.760      34.878    -719.235
  O       80.045      34.893    -719.822
  H       78.208      35.753    -719.577
  H       78.846      34.919    -718.145
  H       78.214      33.977    -719.533
  P       81.028      33.671    -719.470
  C       82.777      33.252    -717.581
  O       81.850      34.160    -718.177
  C       83.327      33.830    -716.271
  O       84.190      34.957    -716.576
  C       82.230      34.327    -715.317
  O       82.553      33.924    -713.989
  C       82.278      35.838    -715.453
  O       81.808      36.499    -714.279
  C       83.754      36.085    -715.790
  N       83.948      37.340    -716.515
  C       84.748      38.319    -715.896
  O       85.234      38.095    -714.787
  N       84.923      39.523    -716.517
  C       84.308      39.771    -717.638
  N       84.503      40.998    -718.193
  C       83.425      38.794    -718.303
  C       83.295      37.612    -717.700
  O       82.108      33.725    -720.652
  O       80.363      32.348    -719.317
  H       80.948      36.087    -714.028
  H       82.649      32.901    -720.684
  H       82.922      39.050    -719.224
  H       82.668      36.832    -718.118
  H       84.372      36.114    -714.880
  H       81.650      36.151    -716.289
  H       81.242      33.943    -715.575
  H       83.954      33.071    -715.796
  H       85.105      41.641    -717.704
  H       83.595      33.073    -718.284
  H       84.056      41.300    -719.047
  H       82.266      32.302    -717.379
  P       81.622      32.770    -713.363
  C       79.130      32.534    -712.684
  O       80.109      33.312    -713.358
  O       82.033      32.751    -711.814
  O       81.802      31.440    -714.016
  H       82.667      32.026    -711.633
  H       78.177      33.014    -712.763
  H       79.398      32.440    -711.652
  H       79.078      31.562    -713.129

 6  7  8  9  10  11  12  13  14  15  16  26  30  31  32  33  35 0
 6-311+G(2d,p)
 ****
 37  38 0
 6-311+G(2d,p)
 ****
 1  2  3  4  5  17  18  19  20  21  22  23  24  25 0
 3-21G
 ****
 27  28  29  34  36  39  40  41  42  43  44  45  46 0
 3-21G
 ****


