%nproc=1
%NoSave
%Mem=1900MB
#P OB98/GEN NMR

erre ene a

0 1
  C       73.108      76.402      39.092
  O       73.761      77.598      39.467
  H       72.093      76.415      39.499
  H       73.639      75.538      39.499
  H       73.053      76.329      38.004
  P       75.293      77.758      39.020
  C       77.389      77.670      40.552
  O       76.179      77.044      40.152
  C       77.955      76.957      41.776
  O       77.115      77.215      42.925
  C       78.005      75.441      41.644
  O       79.105      75.006      40.863
  C       78.119      75.029      43.102
  O       79.479      75.082      43.561
  C       77.251      76.089      43.816
  N       75.956      75.556      44.226
  C       75.964      74.767      45.374
  O       76.985      74.522      46.015
  N       74.760      74.234      45.740
  C       73.583      74.376      45.066
  O       72.552      73.811      45.408
  C       73.632      75.232      43.868
  C       74.800      75.766      43.503
  O       75.574      79.318      39.242
  O       75.592      77.323      37.624
  H       75.561      79.783      38.385
  H       79.440      75.021      44.535
  H       74.747      73.651      46.562
  H       72.712      75.372      43.312
  H       74.865      76.384      42.612
  H       77.763      76.460      44.714
  H       77.772      74.006      43.258
  H       77.058      75.064      41.242
  H       78.955      77.362      41.983
  H       77.193      78.716      40.807
  H       78.099      77.637      39.719
  P       78.812      74.183      39.519
  C       78.805      71.574      39.196
  O       78.421      72.695      39.974
  O       80.286      74.035      38.920
  O       77.825      74.841      38.615
  H       80.965      73.921      39.604
  H       78.453      70.678      39.663
  H       79.872      71.541      39.120
  H       78.380      71.657      38.217

 6  7  8  9  10  11  12  13  14  15  16  27  31  32  33  34  35 0
 6-311+G(2d,p)
 ****
 36  37 0
 6-311+G(2d,p)
 ****
 1  2  3  4  5  17  18  19  20  21  22  23  24  25 0
 3-21G
 ****
 26  28  29  30  38  39  40  41  42  43  44  45 0
 3-21G
 ****


