%nproc=1
%NoSave
%Mem=1900MB
#P OB98/GEN NMR

erre ene a

0 1
  C      -15.102      92.549    -257.446
  O      -14.759      93.793    -258.021
  H      -14.256      91.860    -257.506
  H      -15.356      92.703    -256.394
  H      -15.967      92.122    -257.959
  P      -14.313      93.780    -259.561
  C      -12.091      94.203    -260.828
  O      -12.709      93.894    -259.587
  C      -10.745      94.880    -260.584
  O      -10.990      96.204    -260.043
  C       -9.817      94.131    -259.612
  O       -8.574      93.824    -260.251
  C       -9.551      95.131    -258.497
  O       -8.200      95.119    -258.042
  C       -9.922      96.468    -259.125
  N       -8.241      99.973    -255.830
  C       -7.685      99.460    -256.949
  N       -8.229      98.608    -257.841
  C       -9.495      98.308    -257.500
  C      -10.203      98.770    -256.405
  C       -9.516      99.629    -255.532
  N      -10.063     100.107    -254.361
  N      -11.476      98.232    -256.383
  C      -11.520      97.425    -257.423
  N      -10.339      97.424    -258.118
  O      -14.800      95.209    -260.097
  O      -14.880      92.664    -260.375
  H       -8.006      94.204    -257.761
  H      -15.279      95.097    -260.938
  H       -6.664      99.769    -257.151
  H      -12.354      96.790    -257.693
  H       -9.089      96.905    -259.689
  H      -10.203      94.895    -257.646
  H      -10.269      93.214    -259.219
  H      -10.247      95.016    -261.553
  H      -12.732      94.885    -261.397
  H       -9.460     100.621    -253.738
  H      -10.971      99.768    -254.078
  H      -11.964      93.281    -261.404
  P       -8.278      92.269    -260.543
  C       -7.012      90.367    -259.296
  O       -7.611      91.653    -259.218
  O       -7.059      92.326    -261.578
  O       -9.447      91.523    -261.091
  H       -7.060      91.526    -262.138
  H       -6.616      90.099    -258.339
  H       -6.221      90.385    -260.017
  H       -7.748      89.648    -259.591

 6  7  8  9  10  11  12  13  14  15  25  28  32  33  34  35 0
 6-311+G(2d,p)
 ****
 36  39  40 0
 6-311+G(2d,p)
 ****
 1  2  3  4  5  16  17  18  19  20  21  22  23  24 0
 3-21G
 ****
 26  27  29  30  31  37  38  41  42  43  44  45  46  47  48 0
 3-21G
 ****


