%nproc=1
%NoSave
%Mem=1900MB
#P OB98/GEN NMR

erre ene a

0 1
  C     -945.081    -319.127    -354.272
  O     -945.832    -320.211    -354.845
  P     -946.118    -321.511    -353.967
  C     -948.535    -322.229    -354.567
  O     -947.686    -321.601    -353.615
  C     -949.679    -321.305    -354.959
  O     -949.202    -320.070    -355.521
  C     -950.582    -321.904    -356.032
  O     -951.396    -323.002    -355.679
  C     -951.290    -320.665    -356.581
  O     -952.414    -320.310    -355.764
  C     -950.179    -319.573    -356.476
  N     -949.570    -319.269    -357.762
  C     -950.396    -318.666    -358.703
  O     -951.590    -318.483    -358.507
  N     -949.812    -318.366    -359.885
  C     -948.514    -318.606    -360.252
  O     -948.051    -318.332    -361.352
  C     -947.699    -319.277    -359.229
  C     -948.240    -319.562    -358.033
  O     -945.190    -321.749    -352.819
  O     -945.954    -322.699    -355.044
  H     -952.835    -319.522    -356.180
  H     -945.486    -323.432    -354.607
  H     -950.403    -317.927    -360.602
  H     -946.645    -319.479    -359.476
  H     -947.659    -320.042    -357.262
  H     -950.587    -318.662    -356.067
  H     -951.664    -320.817    -357.602
  H     -949.946    -322.259    -356.858
  H     -950.266    -321.066    -354.056
  H     -948.927    -323.162    -354.144
  H     -947.935    -322.517    -355.442
  P     -950.836    -324.496    -355.559
  C     -951.277    -324.936    -353.036
  O     -950.312    -324.737    -354.052
  O     -949.951    -324.994    -356.671
  O     -952.178    -325.356    -355.563
  H     -952.017    -326.213    -356.011
  H     -950.740    -325.049    -352.087
  H     -951.854    -325.843    -353.229
  H     -951.948    -324.084    -352.945
  H     -944.983    -318.342    -354.992
  H     -944.110    -319.476    -353.990
  H     -945.592    -318.757    -353.408

 3  4  5  6  7  8  9  10  11  12  13  23  28  29  30  31  32 0
 6-311+G(2d,p)
 ****
 33  34 0
 6-311+G(2d,p)
 ****
 1  2  14  15  16  17  18  19  20  21  22  24  25  26  27 0
 3-21G
 ****
 35  36  37  38  39  40  41  42  43  44  45 0
 3-21G
 ****


