%nproc=1
%NoSave
%Mem=1900MB
#P OB98/GEN NMR

erre ene a

0 1
  C      653.290     134.463     -54.536
  O      652.388     133.398     -54.229
  P      650.957     133.750     -53.615
  C      651.138     133.114     -51.123
  O      650.641     132.740     -52.409
  C      650.883     132.004     -50.095
  O      649.451     131.858     -49.849
  C      651.396     130.635     -50.564
  O      651.846     129.857     -49.436
  C      650.147     129.969     -51.118
  O      650.287     128.549     -51.163
  C      649.085     130.486     -50.135
  N      644.744     127.767     -50.163
  C      645.896     127.607     -49.465
  N      647.001     128.385     -49.495
  C      646.844     129.420     -50.349
  C      645.719     129.715     -51.109
  C      644.637     128.818     -51.009
  N      643.473     128.965     -51.736
  N      645.919     130.863     -51.860
  C      647.156     131.227     -51.585
  N      647.736     130.416     -50.646
  O      649.846     133.901     -54.604
  O      651.220     135.133     -52.846
  H      649.522     128.190     -51.645
  H      650.480     135.747     -53.009
  H      645.934     126.749     -48.806
  H      647.677     132.061     -52.037
  H      649.115     129.931     -49.184
  H      649.956     130.329     -52.129
  H      652.203     130.685     -51.307
  H      651.334     132.280     -49.138
  H      650.659     134.041     -50.800
  H      642.804     128.207     -51.682
  H      643.443     129.654     -52.471
  H      652.205     133.342     -51.208
  P      653.424     129.569     -49.371
  C      653.270     127.315     -48.035
  O      653.656     128.669     -48.056
  O      654.264     130.809     -49.480
  O      653.633     128.547     -50.594
  H      653.027     127.793     -50.599
  H      653.621     126.863     -47.118
  H      653.696     126.781     -48.888
  H      652.177     127.241     -48.073
  H      654.196     134.059     -54.936
  H      653.508     135.014     -53.645
  H      652.841     135.114     -55.257

 3  4  5  6  7  8  9  10  11  12  22  25  29  30  31  32 0
 6-311+G(2d,p)
 ****
 33  36  37 0
 6-311+G(2d,p)
 ****
 1  2  13  14  15  16  17  18  19  20  21  23  24  26 0
 3-21G
 ****
 27  28  34  35  38  39  40  41  42  43  44  45  46  47  48 0
 3-21G
 ****


