%nproc=1
%NoSave
%Mem=1900MB
#P OB98/GEN NMR

erre ene a

0 1
  C     -212.296     824.249    -177.880
  O     -213.248     825.099    -177.263
  H     -211.472     824.092    -177.183
  H     -211.909     824.721    -178.786
  H     -212.740     823.280    -178.125
  P     -214.639     825.372    -178.014
  C     -213.753     827.778    -178.317
  O     -214.878     826.959    -177.996
  C     -213.962     829.182    -177.742
  O     -214.927     829.908    -178.532
  C     -214.510     829.186    -176.316
  O     -213.494     828.876    -175.381
  C     -215.051     830.607    -176.214
  O     -213.991     831.540    -175.935
  C     -215.617     830.823    -177.643
  N     -217.066     830.632    -177.703
  C     -217.821     831.263    -176.719
  O     -217.311     831.930    -175.811
  N     -219.174     831.089    -176.800
  C     -219.827     830.268    -177.679
  O     -221.036     830.074    -177.643
  C     -218.981     829.601    -178.671
  C     -217.659     829.820    -178.643
  O     -215.797     824.557    -177.546
  O     -214.302     825.078    -179.553
  H     -213.645     831.301    -175.054
  H     -214.684     824.220    -179.811
  H     -219.735     831.536    -176.084
  H     -219.468     828.951    -179.394
  H     -217.024     829.324    -179.374
  H     -215.381     831.834    -177.994
  H     -215.793     830.716    -175.424
  H     -215.345     828.484    -176.222
  H     -213.007     829.725    -177.794
  H     -213.667     827.844    -179.403
  H     -212.844     827.322    -177.906
  P     -213.861     828.068    -174.045
  C     -211.664     829.104    -173.168
  O     -212.538     827.966    -173.148
  O     -214.590     826.779    -174.252
  O     -214.769     829.098    -173.217
  H     -215.662     828.709    -173.072
  H     -210.822     828.918    -172.535
  H     -212.192     829.965    -172.815
  H     -211.327     829.277    -174.169

 6  7  8  9  10  11  12  13  14  15  16  26  31  32  33  34  35 0
 6-311+G(2d,p)
 ****
 36  37 0
 6-311+G(2d,p)
 ****
 1  2  3  4  5  17  18  19  20  21  22  23  24  25 0
 3-21G
 ****
 27  28  29  30  38  39  40  41  42  43  44  45 0
 3-21G
 ****


