%nproc=1
%NoSave
%Mem=1900MB
#P OB98/GEN NMR

erre ene a

0 1
  C     -102.415    -410.713    -193.918
  O     -102.516    -409.365    -194.325
  H     -101.457    -410.860    -193.413
  H     -102.447    -411.361    -194.798
  H     -103.223    -410.978    -193.231
  P     -103.972    -408.825    -194.726
  C     -103.202    -406.367    -194.412
  O     -103.771    -407.332    -195.284
  C     -102.450    -405.304    -195.212
  O     -101.279    -405.925    -195.825
  C     -103.279    -404.659    -196.335
  O     -102.923    -403.272    -196.433
  C     -102.769    -405.367    -197.577
  O     -102.984    -404.608    -198.760
  C     -101.300    -405.553    -197.215
  N     -100.526    -406.824    -202.008
  C     -101.029    -405.664    -201.458
  N     -101.451    -404.709    -202.315
  N     -101.118    -405.453    -200.171
  C     -100.643    -406.481    -199.425
  C     -100.127    -407.682    -199.846
  C     -100.050    -407.910    -201.274
  O      -99.635    -408.925    -201.822
  N      -99.815    -408.484    -198.777
  C     -100.163    -407.776    -197.716
  N     -100.672    -406.554    -198.059
  O     -104.668    -408.605    -193.300
  O     -104.771    -409.732    -195.601
  H     -103.940    -404.633    -198.971
  H     -105.190    -409.394    -193.063
  H     -100.496    -406.943    -203.006
  H     -100.086    -408.109    -196.691
  H     -100.719    -404.629    -197.332
  H     -103.274    -406.335    -197.689
  H     -101.386    -404.784    -203.318
  H     -104.359    -404.754    -196.201
  H     -101.784    -403.834    -201.926
  H     -102.078    -404.540    -194.517
  H     -102.501    -406.866    -193.733
  H     -103.996    -405.905    -193.817
  P     -103.972    -402.187    -195.898
  C     -102.066    -400.462    -196.304
  O     -103.462    -400.727    -196.325
  O     -103.739    -402.208    -194.315
  O     -105.392    -402.493    -196.247
  H     -104.585    -402.050    -193.854
  H     -101.890    -399.453    -196.613
  H     -101.566    -401.132    -196.972
  H     -101.691    -400.602    -195.312

 6  7  8  9  10  11  12  13  14  15  26  29  33  34 0
 6-311+G(2d,p)
 ****
 36  38  39  40  41 0
 6-311+G(2d,p)
 ****
 1  2  3  4  5  16  17  18  19  20  21  22  23  24  25 0
 3-21G
 ****
 27  28  30  31  32  35  37  42  43  44  45  46  47 0
 3-21G
 ****
 48  49 0
 3-21G
 ****


