%nproc=1
%NoSave
%Mem=1900MB
#P OB98/GEN NMR

erre ene a

0 1
  C      143.056      74.771     182.323
  O      142.087      75.798     182.406
  H      143.465      74.591     183.321
  H      143.869      75.081     181.662
  H      142.605      73.845     181.953
  P      141.189      76.070     181.107
  C      141.410      77.701     179.096
  O      141.736      77.430     180.451
  C      141.335      79.214     178.871
  O      140.166      79.728     179.570
  C      142.556      79.983     179.390
  O      142.819      81.072     178.498
  C      142.075      80.536     180.720
  O      142.789      81.682     181.164
  C      140.606      80.825     180.395
  N      139.777      80.946     181.594
  C      138.492      81.461     181.434
  O      137.975      81.737     180.353
  N      137.786      81.655     182.595
  C      138.236      81.415     183.861
  O      137.561      81.632     184.863
  C      139.601      80.884     183.966
  C      140.298      80.680     182.844
  O      139.778      76.499     181.730
  O      141.071      74.923     180.157
  H      139.212      75.715     181.868
  H      143.689      81.389     181.408
  H      136.855      82.025     182.497
  H      139.994      80.693     184.954
  H      141.317      80.308     182.888
  H      140.521      81.741     179.797
  H      142.158      79.765     181.496
  H      143.460      79.371     179.502
  H      141.178      79.402     177.801
  H      140.437      77.257     178.861
  H      142.170      77.256     178.444
  P      144.037      80.903     177.465
  C      146.633      81.227     177.670
  O      145.363      81.220     178.311
  O      143.838      82.187     176.538
  O      144.018      79.595     176.751
  H      143.507      82.964     177.025
  H      147.393      81.456     178.387
  H      146.638      81.966     176.896
  H      146.823      80.264     177.244

 6  7  8  9  10  11  12  13  14  15  16  27  31  32  33  34  35 0
 6-311+G(2d,p)
 ****
 36  37 0
 6-311+G(2d,p)
 ****
 1  2  3  4  5  17  18  19  20  21  22  23  24  25 0
 3-21G
 ****
 26  28  29  30  38  39  40  41  42  43  44  45 0
 3-21G
 ****


