%nproc=1
%NoSave
%Mem=1900MB
#P OB98/GEN NMR

erre ene a

0 1
  C      -80.603      66.019       4.254
  O      -79.394      66.421       3.643
  H      -80.611      64.929       4.329
  H      -81.456      66.332       3.648
  H      -80.688      66.439       5.260
  P      -79.067      67.985       3.531
  C      -80.162      68.272       1.215
  O      -80.195      68.630       2.592
  C      -80.631      69.447       0.362
  O      -82.069      69.582       0.440
  C      -80.063      70.793       0.800
  O      -78.714      70.924       0.401
  C      -81.037      71.740       0.117
  O      -80.722      71.889      -1.276
  C      -82.378      70.986       0.292
  N      -83.162      71.476       1.427
  C      -83.973      72.579       1.181
  O      -84.046      73.132       0.086
  N      -84.672      73.057       2.259
  C      -84.564      72.604       3.542
  O      -85.035      73.197       4.508
  C      -83.750      71.394       3.727
  C      -83.084      70.902       2.681
  O      -77.663      68.328       3.158
  O      -79.442      68.552       4.982
  H      -78.625      68.673       5.502
  H      -79.978      72.520      -1.326
  H      -85.225      73.886       2.102
  H      -83.693      70.965       4.719
  H      -82.456      70.027       2.799
  H      -82.992      71.082      -0.614
  H      -81.023      72.739       0.556
  H      -80.161      70.907       1.886
  H      -80.369      69.236      -0.683
  H      -80.834      67.420       1.062
  H      -79.144      67.976       0.946
  P      -77.709      71.893       1.183
  C      -78.457      73.932      -0.178
  O      -78.305      73.378       1.123
  O      -76.277      71.783       0.776
  O      -77.896      71.493       2.723
  H      -77.022      71.292       3.109
  H      -78.860      74.920      -0.100
  H      -79.122      73.320      -0.751
  H      -77.504      73.973      -0.662

 6  7  8  9  10  11  12  13  14  15  16  27  31  32  33  34  35 0
 6-311+G(2d,p)
 ****
 36  37 0
 6-311+G(2d,p)
 ****
 1  2  3  4  5  17  18  19  20  21  22  23  24  25 0
 3-21G
 ****
 26  28  29  30  38  39  40  41  42  43  44  45 0
 3-21G
 ****


