%nproc=1
%NoSave
%Mem=1900MB
#P OB98/GEN NMR

erre ene a

0 1
  C      119.538     324.977     290.538
  O      119.349     324.825     291.926
  P      120.563     325.051     292.946
  C      120.938     322.541     293.377
  O      121.487     323.743     292.841
  C      122.051     321.555     293.711
  O      122.854     321.258     292.540
  C      123.052     322.074     294.735
  O      122.588     322.294     296.047
  C      124.196     321.083     294.556
  O      123.948     319.870     295.267
  C      124.152     320.835     293.026
  N      125.244     321.521     292.329
  C      125.897     320.784     291.345
  O      125.600     319.626     291.052
  N      126.933     321.415     290.725
  C      127.406     322.665     291.013
  O      128.376     323.151     290.445
  C      126.691     323.388     292.073
  C      125.658     322.790     292.678
  O      120.169     325.426     294.334
  O      121.464     326.158     292.206
  H      123.769     320.104     296.199
  H      121.794     325.890     291.331
  H      127.433     320.898     290.011
  H      127.031     324.383     292.318
  H      125.112     323.302     293.462
  H      124.234     319.764     292.812
  H      125.140     321.485     294.930
  H      123.423     323.049     294.384
  H      121.593     320.615     294.035
  H      120.276     322.092     292.632
  H      120.335     322.776     294.259
  P      123.126     323.477     296.986
  C      124.865     321.789     297.904
  O      124.609     323.104     297.466
  O      122.176     323.997     298.012
  O      123.409     324.636     295.907
  H      123.261     325.507     296.323
  H      125.902     321.727     298.236
  H      124.713     321.081     297.086
  H      124.214     321.532     298.743
  H      118.616     324.785     290.029
  H      120.282     324.285     290.201
  H      119.860     325.976     290.329

 3  4  5  6  7  8  9  10  11  12  13  23  28  29  30  31  32 0
 6-311+G(2d,p)
 ****
 33  34 0
 6-311+G(2d,p)
 ****
 1  2  14  15  16  17  18  19  20  21  22  24  25  26  27 0
 3-21G
 ****
 35  36  37  38  39  40  41  42  43  44  45 0
 3-21G
 ****


