%nproc=1
%NoSave
%Mem=1900MB
#P OB98/GEN NMR

erre ene a

0 1
  C      -53.601    -893.230     279.609
  O      -54.622    -894.150     279.314
  P      -54.767    -894.870     277.895
  C      -55.521    -892.870     276.424
  O      -55.893    -894.090     277.035
  C      -56.058    -892.710     274.989
  O      -55.528    -893.770     274.152
  C      -57.586    -892.900     274.990
  O      -58.431    -891.810     275.304
  C      -57.898    -893.580     273.670
  O      -58.331    -892.670     272.655
  C      -56.560    -894.220     273.277
  N      -57.425    -898.460     270.609
  C      -57.239    -897.180     270.168
  N      -57.496    -896.980     268.840
  N      -56.845    -896.180     270.922
  C      -56.731    -896.520     272.239
  C      -56.871    -897.770     272.794
  C      -57.263    -898.870     271.946
  O      -57.517    -900.000     272.321
  N      -56.748    -897.730     274.173
  C      -56.552    -896.460     274.427
  N      -56.569    -895.680     273.298
  O      -54.777    -896.370     277.905
  O      -53.405    -894.410     277.164
  H      -59.181    -892.300     272.937
  H      -53.110    -895.150     276.592
  H      -57.807    -899.170     269.996
  H      -56.436    -896.040     275.416
  H      -56.281    -893.920     272.270
  H      -58.722    -894.320     273.801
  H      -57.934    -897.660     268.268
  H      -57.812    -893.640     275.767
  H      -57.543    -896.010     268.521
  H      -55.720    -891.780     274.534
  H      -54.428    -892.820     276.422
  H      -55.873    -892.030     277.031
  P      -59.534    -891.760     276.475
  C      -61.215    -892.930     274.936
  O      -60.984    -891.840     275.794
  O      -59.465    -890.270     277.013
  O      -59.303    -892.730     277.588
  H      -59.833    -890.240     277.929
  H      -62.073    -892.740     274.310
  H      -61.409    -893.840     275.516
  H      -60.343    -893.100     274.295
  H      -53.712    -892.885     280.616
  H      -53.665    -892.399     278.938
  H      -52.649    -893.706     279.498

 3  4  5  6  7  8  9  10  11  12  23  26  30  31 0
 6-311+G(2d,p)
 ****
 33  35  36  37  38 0
 6-311+G(2d,p)
 ****
 1  2  13  14  15  16  17  18  19  20  21  22  24  25 0
 3-21G
 ****
 27  28  29  32  34  39  40  41  42  43  44  45  46  47  48  49 0
 3-21G
 ****


