%nproc=1
%NoSave
%Mem=1900MB
#P OB98/GEN NMR

erre ene a

0 1
  C     -627.941    -396.598     668.070
  O     -628.596    -395.470     668.629
  P     -630.209    -395.415     668.512
  C     -630.575    -393.765     670.491
  O     -630.652    -393.983     669.078
  C     -630.260    -392.300     670.776
  O     -628.918    -391.963     670.330
  C     -631.174    -391.295     670.058
  O     -632.408    -391.128     670.753
  C     -630.337    -390.029     670.136
  O     -630.481    -389.433     671.435
  C     -628.903    -390.569     669.941
  N     -626.971    -387.408     666.489
  C     -627.128    -387.238     667.844
  N     -626.786    -386.032     668.366
  N     -627.594    -388.158     668.655
  C     -627.918    -389.324     668.004
  C     -627.801    -389.595     666.657
  C     -627.309    -388.554     665.791
  O     -627.187    -388.631     664.572
  N     -628.213    -390.872     666.380
  C     -628.581    -391.358     667.554
  N     -628.453    -390.426     668.549
  O     -630.699    -396.431     669.648
  O     -630.748    -395.764     667.155
  H     -630.242    -390.124     672.092
  H     -631.646    -396.687     669.477
  H     -626.626    -386.648     665.918
  H     -628.950    -392.380     667.720
  H     -628.195    -390.052     670.585
  H     -630.651    -389.291     669.405
  H     -626.466    -385.251     667.794
  H     -631.320    -391.569     669.008
  H     -626.940    -385.861     669.348
  H     -630.299    -392.142     671.869
  H     -629.800    -394.401     670.920
  H     -631.536    -394.037     670.940
  P     -633.700    -390.807     669.832
  C     -635.320    -391.052     671.852
  O     -634.802    -390.218     670.871
  O     -634.270    -392.261     669.489
  O     -633.412    -389.996     668.621
  H     -634.767    -392.247     668.637
  H     -635.840    -390.438     672.612
  H     -634.532    -391.644     672.359
  H     -636.053    -391.748     671.421
  H     -626.885    -396.506     668.217
  H     -628.152    -396.650     667.022
  H     -628.292    -397.488     668.549

 3  4  5  6  7  8  9  10  11  12  23  26  30  31 0
 6-311+G(2d,p)
 ****
 33  35  36  37  38 0
 6-311+G(2d,p)
 ****
 1  2  13  14  15  16  17  18  19  20  21  22  24  25 0
 3-21G
 ****
 27  28  29  32  34  39  40  41  42  43  44  45  46  47  48  49 0
 3-21G
 ****


