%nproc=1
%NoSave
%Mem=1900MB
#P OB98/GEN NMR

erre ene a

0 1
  C     -977.930     702.046     537.727
  O     -976.548     701.697     537.589
  P     -975.481     702.846     537.198
  C     -973.409     701.739     538.368
  O     -974.017     702.193     537.165
  C     -972.136     700.966     538.073
  O     -972.428     699.755     537.342
  C     -971.120     701.721     537.213
  O     -970.416     702.704     537.965
  C     -970.228     700.579     536.729
  O     -969.245     700.242     537.701
  C     -971.247     699.435     536.553
  N     -971.588     699.199     535.148
  C     -970.629     698.552     534.390
  O     -969.521     698.242     534.804
  N     -970.978     698.300     533.078
  C     -972.138     698.696     532.468
  O     -972.387     698.465     531.294
  C     -973.088     699.442     533.306
  C     -972.764     699.676     534.587
  O     -975.417     703.710     538.544
  O     -975.842     703.693     536.028
  H     -968.706     699.518     537.339
  H     -975.181     704.628     538.335
  H     -970.304     697.817     532.507
  H     -974.001     699.797     532.853
  H     -973.454     700.223     535.230
  H     -970.855     698.501     536.983
  H     -969.691     700.840     535.794
  H     -971.629     702.172     536.354
  H     -971.679     700.672     539.037
  H     -974.107     701.097     538.907
  H     -973.201     702.615     539.006
  P     -970.069     704.073     537.206
  C     -970.257     705.822     539.153
  O     -969.425     705.027     538.328
  O     -971.550     704.680     536.963
  O     -969.272     703.870     535.971
  H     -972.149     704.436     537.673
  H     -971.202     705.321     539.362
  H     -970.449     706.784     538.666
  H     -969.733     705.990     540.104
  H     -978.494     701.174     537.987
  H     -978.292     702.442     536.801
  H     -978.037     702.782     538.496

 3  4  5  6  7  8  9  10  11  12  13  23  28  29  30  31  32 0
 6-311+G(2d,p)
 ****
 33  34 0
 6-311+G(2d,p)
 ****
 1  2  14  15  16  17  18  19  20  21  22  24  25  26 0
 3-21G
 ****
 27  35  36  37  38  39  40  41  42  43  44  45 0
 3-21G
 ****


