%nproc=1
%NoSave
%Mem=1900MB
#P OB98/GEN NMR

erre ene a

0 1
  C      263.806     379.271     549.498
  O      263.492     378.558     550.673
  H      264.752     378.896     549.099
  H      263.925     380.338     549.727
  H      263.028     379.144     548.739
  P      262.063     378.786     551.359
  C      262.971     377.886     553.610
  O      261.977     377.776     552.601
  C      263.308     376.502     554.195
  O      263.890     375.678     553.129
  C      264.337     376.539     555.345
  O      264.038     375.428     556.203
  C      265.627     376.317     554.578
  O      266.716     376.033     555.427
  C      265.161     375.214     553.612
  N      266.063     374.940     552.509
  C      267.102     374.041     552.726
  O      267.319     373.462     553.792
  N      267.930     373.806     551.654
  C      267.816     374.373     550.413
  O      268.570     374.104     549.481
  C      266.702     375.314     550.244
  C      265.883     375.548     551.275
  O      260.883     378.767     550.440
  O      262.218     380.210     552.085
  H      261.779     380.898     551.548
  H      267.004     376.861     555.858
  H      268.694     373.163     551.794
  H      266.583     375.781     549.274
  H      265.043     376.234     551.175
  H      264.975     374.291     554.174
  H      265.897     377.225     554.030
  H      264.303     377.472     555.917
  H      262.380     376.018     554.504
  H      262.585     378.539     554.399
  H      263.870     378.337     553.173
  P      264.083     375.518     557.810
  C      266.126     374.065     558.447
  O      264.714     374.141     558.365
  O      262.771     375.870     558.435
  O      265.200     376.620     558.149
  H      265.002     377.023     559.012
  H      266.410     373.106     558.828
  H      266.487     374.830     559.102
  H      266.548     374.201     557.473

 6  7  8  9  10  11  12  13  14  15  16  27  31  32  33  34  35 0
 6-311+G(2d,p)
 ****
 36  37 0
 6-311+G(2d,p)
 ****
 1  2  3  4  5  17  18  19  20  21  22  23  24  25 0
 3-21G
 ****
 26  28  29  30  38  39  40  41  42  43  44  45 0
 3-21G
 ****


