%nproc=1
%NoSave
%Mem=1900MB
#P OB98/GEN NMR

erre ene a

0 1
  C       34.889     521.666    -201.909
  O       35.857     520.955    -201.155
  P       37.326     520.818    -201.782
  C       38.361     521.519    -199.495
  O       38.273     521.766    -200.900
  C       38.636     522.816    -198.742
  O       37.584     523.764    -198.992
  C       38.695     522.651    -197.231
  O       39.927     522.092    -196.829
  C       38.484     524.091    -196.766
  O       39.733     524.803    -196.717
  C       37.561     524.674    -197.864
  N       36.198     524.886    -197.397
  C       35.766     526.220    -197.387
  O       36.532     527.124    -197.749
  N       34.496     526.497    -196.938
  C       33.737     525.532    -196.533
  N       32.487     525.865    -196.102
  C       34.164     524.122    -196.501
  C       35.394     523.870    -196.934
  O       37.207     521.600    -203.169
  O       37.802     519.411    -201.958
  H       40.146     524.663    -197.592
  H       37.859     521.265    -203.817
  H       33.486     523.351    -196.143
  H       35.794     522.867    -196.949
  H       37.951     525.635    -198.229
  H       38.054     524.142    -195.763
  H       37.856     522.030    -196.877
  H       39.582     523.242    -199.122
  H       32.227     526.847    -196.125
  H       39.178     520.820    -199.307
  H       31.807     525.183    -195.785
  H       37.428     521.065    -199.156
  P       39.904     520.659    -196.126
  C       42.167     519.455    -196.197
  O       41.005     519.794    -196.919
  O       38.533     520.036    -196.676
  O       39.984     520.628    -194.637
  H       38.351     519.184    -196.230
  H       42.756     518.748    -196.793
  H       41.916     518.997    -195.243
  H       42.777     520.351    -196.027
  H       33.961     521.680    -201.376
  H       34.750     521.185    -202.855
  H       35.225     522.670    -202.065

 3  4  5  6  7  8  9  10  11  12  13  21  23  27  28  29  30  32 0
 6-311+G(2d,p)
 ****
 34  35 0
 6-311+G(2d,p)
 ****
 1  2  14  15  16  17  18  19  20  22  24  25  26 0
 3-21G
 ****
 31  33  36  37  38  39  40  41  42  43  44  45  46 0
 3-21G
 ****


