%nproc=1
%NoSave
%Mem=1900MB
#P OB98/GEN NMR

erre ene a

0 1
  C     -519.149    -817.809     330.636
  O     -518.785    -817.955     331.997
  H     -519.374    -818.795     330.219
  H     -518.321    -817.373     330.075
  H     -520.039    -817.174     330.543
  P     -518.616    -816.610     332.845
  C     -516.120    -817.072     333.416
  O     -517.059    -816.214     332.782
  C     -514.702    -816.540     333.231
  O     -514.331    -816.609     331.828
  C     -514.515    -815.087     333.648
  O     -514.322    -814.961     335.053
  C     -513.268    -814.728     332.873
  O     -512.106    -815.278     333.539
  C     -513.503    -815.445     331.531
  N     -512.828    -812.353     327.575
  C     -511.891    -813.001     328.361
  N     -510.598    -812.782     328.078
  N     -512.203    -813.786     329.364
  C     -513.541    -813.896     329.554
  C     -514.563    -813.314     328.831
  C     -514.211    -812.464     327.725
  O     -514.997    -811.884     326.983
  N     -515.794    -813.688     329.321
  C     -515.514    -814.473     330.350
  N     -514.165    -814.625     330.537
  O     -518.797    -817.103     334.362
  O     -519.575    -815.513     332.513
  H     -511.344    -814.777     333.218
  H     -519.261    -816.411     334.870
  H     -512.539    -811.746     326.823
  H     -516.253    -814.949     330.969
  H     -512.567    -815.810     331.084
  H     -513.099    -813.647     332.798
  H     -510.298    -812.145     327.353
  H     -515.351    -814.466     333.301
  H     -509.899    -813.248     328.619
  H     -514.020    -817.187     333.787
  H     -516.189    -818.074     332.983
  H     -516.375    -817.133     334.484
  P     -514.048    -813.487     335.637
  C     -511.742    -814.309     336.518
  O     -512.451    -813.350     335.730
  O     -514.496    -813.618     337.173
  O     -514.764    -812.379     334.930
  H     -514.731    -812.753     337.522
  H     -510.695    -814.092     336.486
  H     -511.915    -815.290     336.127
  H     -512.085    -814.263     337.530

 6  7  8  9  10  11  12  13  14  15  26  29  33  34 0
 6-311+G(2d,p)
 ****
 36  38  39  40  41 0
 6-311+G(2d,p)
 ****
 1  2  3  4  5  16  17  18  19  20  21  22  23  24  25 0
 3-21G
 ****
 27  28  30  31  32  35  37  42  43  44  45  46  47 0
 3-21G
 ****
 48  49 0
 3-21G
 ****


