%nproc=1
%NoSave
%Mem=1900MB
#P OB98/GEN NMR

erre ene a

0 1
  C       32.790     -43.187      22.412
  O       32.237     -42.296      23.391
  P       32.680     -40.759      23.535
  C       34.691     -39.438      24.499
  O       34.116     -40.718      24.258
  C       35.559     -39.456      25.761
  O       34.720     -39.493      26.943
  C       36.463     -40.673      25.911
  O       37.572     -40.630      25.030
  C       36.830     -40.591      27.392
  O       37.936     -39.702      27.609
  C       35.551     -40.002      28.018
  N       34.820     -40.964      28.829
  C       35.464     -41.424      29.987
  O       36.620     -41.081      30.234
  N       34.778     -42.275      30.817
  C       33.606     -42.712      30.479
  N       32.970     -43.538      31.355
  C       32.953     -42.359      29.202
  C       33.610     -41.489      28.435
  O       31.652     -39.890      24.190
  O       32.987     -40.263      22.043
  H       32.854     -39.299      21.985
  H       37.717     -38.863      27.161
  H       31.993     -42.780      28.937
  H       33.194     -41.163      27.486
  H       35.798     -39.126      28.630
  H       37.118     -41.567      27.799
  H       35.876     -41.584      25.732
  H       36.153     -38.532      25.782
  H       33.441     -43.753      32.226
  H       33.880     -38.713      24.637
  H       32.048     -43.914      31.193
  H       35.279     -39.136      23.624
  P       37.803     -41.913      24.090
  C       37.832     -44.483      24.465
  O       37.953     -43.195      25.041
  O       39.285     -41.690      23.510
  O       36.805     -42.060      22.989
  H       39.313     -41.972      22.574
  H       38.412     -45.191      25.065
  H       38.203     -44.504      23.435
  H       36.780     -44.785      24.478
  H       32.339     -44.152      22.513
  H       33.846     -43.270      22.561
  H       32.597     -42.804      21.432

 3  4  5  6  7  8  9  10  11  12  13  24  27  28  29  30  32 0
 6-311+G(2d,p)
 ****
 34  35 0
 6-311+G(2d,p)
 ****
 1  2  14  15  16  17  18  19  20  21  22  23  25  26 0
 3-21G
 ****
 31  33  36  37  38  39  40  41  42  43  44  45  46 0
 3-21G
 ****


