%nproc=1
%NoSave
%Mem=1900MB
#P OB98/GEN NMR

erre ene a

0 1
  C      228.638     411.935    -347.327
  O      229.669     412.335    -346.449
  H      227.910     412.749    -347.406
  H      228.130     411.053    -346.927
  H      229.039     411.717    -348.321
  P      230.894     411.317    -346.255
  C      229.383     410.081    -344.543
  O      230.265     409.962    -345.653
  C      228.538     408.815    -344.389
  O      229.420     407.699    -344.055
  C      227.466     408.902    -343.289
  O      226.320     408.153    -343.726
  C      228.110     408.150    -342.129
  O      227.150     407.677    -341.189
  C      228.846     407.052    -342.897
  N      229.570     404.272    -338.763
  C      228.400     404.714    -339.354
  N      227.245     404.360    -338.751
  N      228.368     405.438    -340.445
  C      229.601     405.690    -340.959
  C      230.828     405.317    -340.468
  C      230.852     404.536    -339.244
  O      231.857     404.134    -338.665
  N      231.844     405.794    -341.261
  C      231.228     406.449    -342.226
  N      229.867     406.414    -342.089
  O      231.689     411.947    -345.018
  O      231.770     411.135    -347.451
  H      227.640     407.265    -340.443
  H      232.400     412.534    -345.337
  H      229.539     403.727    -337.918
  H      231.714     406.967    -343.044
  H      228.172     406.259    -343.241
  H      228.814     408.805    -341.600
  H      227.189     403.763    -337.941
  H      227.166     409.923    -343.028
  H      226.375     404.640    -339.196
  H      228.087     408.571    -345.359
  H      228.721     410.937    -344.705
  H      229.973     410.248    -343.632
  P      225.083     408.963    -344.344
  C      223.879     409.020    -342.036
  O      224.366     409.759    -343.149
  O      224.033     407.801    -344.681
  O      225.423     409.773    -345.552
  H      223.462     408.081    -345.421
  H      223.432     409.690    -341.331
  H      224.690     408.501    -341.570
  H      223.148     408.313    -342.369

 6  7  8  9  10  11  12  13  14  15  26  29  33  34 0
 6-311+G(2d,p)
 ****
 36  38  39  40  41 0
 6-311+G(2d,p)
 ****
 1  2  3  4  5  16  17  18  19  20  21  22  23  24  25 0
 3-21G
 ****
 27  28  30  31  32  35  37  42  43  44  45  46  47 0
 3-21G
 ****
 48  49 0
 3-21G
 ****


