%nproc=1
%NoSave
%Mem=1900MB
#P OB98/GEN NMR

erre ene a

0 1
  C      115.907     103.968     -59.239
  O      115.947     105.377     -58.970
  P      117.384     106.035     -58.685
  C      118.980     105.215     -60.603
  O      118.073     106.207     -60.125
  C      119.309     105.470     -62.070
  O      118.141     105.238     -62.899
  C      119.750     106.900     -62.377
  O      121.071     107.143     -61.932
  C      119.560     106.939     -63.891
  O      120.673     106.326     -64.553
  C      118.289     106.073     -64.072
  N      117.089     106.860     -64.324
  C      116.473     106.663     -65.560
  O      116.914     105.880     -66.413
  N      115.340     107.393     -65.794
  C      114.799     108.313     -64.951
  O      113.769     108.942     -65.209
  C      115.519     108.530     -63.675
  C      116.612     107.801     -63.427
  O      118.163     104.805     -58.014
  O      117.307     107.272     -57.851
  H      117.903     103.943     -58.396
  H      120.435     106.276     -65.502
  H      114.876     107.258     -66.676
  H      115.123     109.268     -62.990
  H      117.162     107.947     -62.499
  H      118.425     105.385     -64.923
  H      119.467     107.967     -64.273
  H      119.057     107.613     -61.899
  H      120.095     104.761     -62.380
  H      118.541     104.218     -60.496
  H      119.884     105.246     -59.984
  P      121.349     108.541     -61.191
  C      122.739     107.301     -59.351
  O      122.670     108.331     -60.310
  O      120.160     108.561     -60.114
  O      121.360     109.715     -62.109
  H      120.047     107.702     -59.663
  H      123.791     107.098     -59.116
  H      122.281     106.380     -59.725
  H      122.232     107.613     -58.433
  H      114.895     103.666     -59.409
  H      116.302     103.433     -58.401
  H      116.494     103.754     -60.108

 3  4  5  6  7  8  9  10  11  12  13  24  28  29  30  31  32 0
 6-311+G(2d,p)
 ****
 33  34 0
 6-311+G(2d,p)
 ****
 1  2  14  15  16  17  18  19  20  21  22  23  25  26  27 0
 3-21G
 ****
 35  36  37  38  39  40  41  42  43  44  45 0
 3-21G
 ****


