%nproc=1
%NoSave
%Mem=1900MB
#P OB98/GEN NMR

erre ene a

0 1
  C     -259.193     568.838     164.840
  O     -258.726     570.080     164.360
  H     -259.155     568.107     164.029
  H     -260.229     568.932     165.178
  H     -258.571     568.483     165.667
  P     -258.508     571.240     165.448
  C     -256.848     572.214     163.708
  O     -257.863     572.485     164.666
  C     -256.061     573.495     163.400
  O     -255.927     574.295     164.600
  C     -254.644     573.246     162.896
  O     -254.613     572.966     161.501
  C     -253.997     574.594     163.201
  O     -254.409     575.557     162.211
  C     -254.625     574.940     164.564
  N     -250.361     575.620     167.219
  C     -250.815     576.270     166.088
  N     -250.020     577.242     165.582
  N     -251.947     575.996     165.493
  C     -252.639     574.997     166.103
  C     -252.286     574.281     167.227
  C     -251.038     574.595     167.873
  O     -250.599     574.070     168.885
  N     -253.241     573.356     167.545
  C     -254.168     573.497     166.603
  N     -253.836     574.479     165.702
  O     -257.287     570.692     166.334
  O     -259.692     571.555     166.300
  H     -253.878     576.367     162.362
  H     -257.428     570.961     167.263
  H     -249.467     575.856     167.622
  H     -255.080     572.921     166.536
  H     -254.775     576.011     164.695
  H     -252.912     574.552     163.183
  H     -249.109     577.462     165.956
  H     -254.135     572.464     163.482
  H     -250.350     577.758     164.775
  H     -256.638     574.073     162.677
  H     -257.306     571.848     162.783
  H     -256.173     571.443     164.111
  P     -253.798     571.677     161.011
  C     -255.856     571.274     159.496
  O     -254.448     571.259     159.608
  O     -254.299     570.532     162.015
  O     -252.309     571.827     161.036
  H     -253.631     569.815     162.065
  H     -256.138     570.974     158.509
  H     -256.218     572.263     159.685
  H     -256.278     570.597     160.209

 6  7  8  9  10  11  12  13  14  15  26  29  33  34 0
 6-311+G(2d,p)
 ****
 36  38  39  40  41 0
 6-311+G(2d,p)
 ****
 1  2  3  4  5  16  17  18  19  20  21  22  23  24  25 0
 3-21G
 ****
 27  28  30  31  32  35  37  42  43  44  45  46  47 0
 3-21G
 ****
 48  49 0
 3-21G
 ****


