%nproc=1
%NoSave
%Mem=1900MB
#P OB98/GEN NMR

erre ene a

0 1
  C     -240.657     301.909      75.324
  O     -241.501     302.293      74.252
  H     -239.646     301.712      74.955
  H     -240.614     302.726      76.051
  H     -241.055     301.014      75.817
  P     -241.672     301.238      73.054
  C     -243.968     300.591      74.096
  O     -242.712     300.142      73.602
  C     -245.036     300.377      73.023
  O     -245.083     298.985      72.632
  C     -246.447     300.729      73.484
  O     -246.714     302.119      73.401
  C     -247.272     299.946      72.477
  O     -247.287     300.635      71.213
  C     -246.469     298.640      72.362
  N     -248.429     293.924      72.810
  C     -248.062     294.647      71.731
  N     -247.528     295.894      71.694
  C     -247.371     296.376      72.937
  C     -247.694     295.747      74.132
  C     -248.253     294.463      74.041
  N     -248.656     293.732      75.136
  N     -247.404     296.572      75.211
  C     -246.906     297.668      74.667
  N     -246.892     297.612      73.296
  O     -240.283     300.440      73.046
  O     -242.023     301.814      71.720
  H     -247.866     301.416      71.320
  H     -240.188     299.931      72.216
  H     -248.222     294.175      70.762
  H     -246.548     298.526      75.221
  H     -246.513     298.201      71.354
  H     -248.317     299.826      72.788
  H     -246.650     300.341      74.488
  H     -244.756     300.965      72.134
  H     -243.897     301.654      74.342
  H     -249.182     292.886      74.963
  H     -248.662     294.177      76.044
  H     -244.225     300.028      74.999
  P     -247.961     302.682      74.244
  C     -246.546     304.111      75.902
  O     -247.408     302.987      75.726
  O     -248.873     301.387      74.450
  O     -248.704     303.801      73.587
  H     -249.817     301.624      74.478
  H     -246.263     304.185      76.931
  H     -247.058     305.003      75.608
  H     -245.671     303.987      75.299

 6  7  8  9  10  11  12  13  14  15  25  28  32  33  34  35 0
 6-311+G(2d,p)
 ****
 36  39  40 0
 6-311+G(2d,p)
 ****
 1  2  3  4  5  16  17  18  19  20  21  22  23  24 0
 3-21G
 ****
 26  27  29  30  31  37  38  41  42  43  44  45  46  47 0
 3-21G
 ****
 48 0
 3-21G
 ****


