%nproc=1
%NoSave
%Mem=1900MB
#P OB98/GEN NMR

erre ene a

0 1
  C     -179.688    -368.202    -260.904
  O     -178.768    -367.146    -260.651
  P     -177.206    -367.519    -260.592
  C     -177.352    -367.898    -258.024
  O     -177.039    -368.456    -259.295
  C     -177.070    -368.899    -256.918
  O     -177.983    -370.012    -257.019
  C     -175.679    -369.512    -256.954
  O     -174.704    -368.656    -256.374
  C     -175.883    -370.758    -256.106
  O     -175.798    -370.416    -254.707
  C     -177.319    -371.179    -256.466
  N     -176.416    -376.093    -257.317
  C     -176.233    -375.341    -256.173
  N     -175.764    -375.997    -255.088
  N     -176.481    -374.061    -256.093
  C     -176.983    -373.545    -257.241
  C     -177.207    -374.179    -258.444
  C     -176.885    -375.590    -258.530
  O     -176.962    -376.286    -259.538
  N     -177.733    -373.320    -259.369
  C     -177.863    -372.179    -258.728
  N     -177.385    -372.254    -257.438
  O     -176.526    -366.142    -260.142
  O     -176.628    -368.032    -261.868
  H     -175.955    -371.227    -254.196
  H     -175.597    -366.117    -260.441
  H     -176.227    -377.079    -257.318
  H     -178.291    -371.283    -259.150
  H     -177.887    -371.473    -255.581
  H     -175.124    -371.530    -256.288
  H     -175.684    -377.010    -255.048
  H     -175.403    -369.806    -257.973
  H     -175.662    -375.479    -254.230
  H     -177.252    -368.407    -255.948
  H     -178.413    -367.628    -258.002
  H     -176.757    -366.988    -257.880
  P     -173.199    -368.814    -256.915
  C     -172.579    -370.351    -254.907
  O     -172.678    -370.208    -256.313
  O     -172.397    -367.711    -256.076
  O     -173.047    -368.632    -258.387
  H     -171.600    -367.421    -256.571
  H     -173.383    -369.814    -254.391
  H     -171.613    -369.962    -254.577
  H     -172.643    -371.416    -254.651
  H     -180.684    -367.812    -260.916
  H     -179.603    -368.941    -260.135
  H     -179.468    -368.647    -261.852

 3  4  5  6  7  8  9  10  11  12  23  26  30  31  33  0
 6-311+G(2d,p)
 ****
 35  36  37  38 0
 6-311+G(2d,p)
 ****
 1  2  13  14  15  16  17  18  19  20  21  22  24  25  27  28  29 0
 3-21G
 ****
 32  34  39  40  41  42  43  44  45  46  47  48  49 0
 3-21G
 ****


