%nproc=1
%NoSave
%Mem=1900MB
#P OB98/GEN NMR

erre ene a

0 1
  C     -622.408     268.803    -461.135
  O     -623.579     268.447    -461.840
  P     -623.702     267.055    -462.636
  C     -623.554     267.968    -465.030
  O     -624.405     267.412    -464.028
  C     -624.365     268.698    -466.103
  O     -625.140     267.739    -466.880
  C     -625.343     269.753    -465.557
  O     -625.406     270.800    -466.523
  C     -626.658     268.984    -465.540
  O     -627.797     269.846    -465.483
  C     -626.523     268.139    -466.805
  N     -627.435     266.987    -466.797
  C     -628.583     267.092    -467.593
  O     -628.828     268.145    -468.187
  N     -629.439     266.031    -467.646
  C     -629.232     264.991    -466.897
  N     -630.115     263.970    -466.984
  C     -628.094     264.898    -465.946
  C     -627.245     265.910    -465.959
  O     -624.355     265.951    -461.862
  O     -622.204     266.727    -463.060
  H     -628.603     269.280    -465.528
  H     -621.689     266.382    -462.289
  H     -627.991     264.036    -465.296
  H     -626.378     265.931    -465.297
  H     -626.735     268.750    -467.706
  H     -626.694     268.336    -464.650
  H     -625.078     270.150    -464.587
  H     -623.664     269.182    -466.800
  H     -630.871     264.058    -467.662
  H     -623.006     267.148    -465.499
  H     -630.000     263.078    -466.514
  H     -622.818     268.644    -464.565
  P     -624.811     272.261    -466.221
  C     -626.986     273.596    -466.151
  O     -625.813     273.324    -466.885
  O     -623.371     272.456    -466.573
  O     -625.056     272.457    -464.646
  H     -624.529     273.193    -464.313
  H     -627.448     274.525    -466.533
  H     -626.759     273.762    -465.086
  H     -627.695     272.787    -466.264
  H     -622.542     269.763    -460.682
  H     -621.581     268.841    -461.813
  H     -622.214     268.075    -460.376

 3  4  5  6  7  8  9  10  11  12  13  23  27  28  29  30  32 0
 6-311+G(2d,p)
 ****
 34  35 0
 6-311+G(2d,p)
 ****
 1  2  14  15  16  17  18  19  20  21  22  24  25  26 0
 3-21G
 ****
 31  33  36  37  38  39  40  41  42  43  44  45  46 0
 3-21G
 ****


