%nproc=1
%NoSave
%Mem=1900MB
#P OB98/GEN NMR

erre ene a

0 1
  C      323.695     665.319     -52.007
  O      323.592     666.459     -52.833
  P      324.366     666.437     -54.241
  C      326.885     665.946     -54.805
  O      325.922     666.437     -53.882
  C      328.257     665.853     -54.144
  O      328.251     664.805     -53.165
  C      329.410     665.525     -55.101
  O      329.805     666.665     -55.860
  C      330.463     665.011     -54.124
  O      331.137     666.123     -53.493
  C      329.599     664.259     -53.090
  N      329.597     662.804     -53.293
  C      330.070     662.041     -52.238
  O      330.491     662.523     -51.180
  N      330.080     660.685     -52.443
  C      329.724     660.042     -53.598
  O      329.802     658.821     -53.735
  C      329.252     660.903     -54.687
  C      329.216     662.228     -54.482
  O      324.063     667.926     -54.769
  O      323.902     665.341     -55.142
  H      323.910     668.545     -54.032
  H      331.426     666.712     -54.237
  H      330.407     660.100     -51.677
  H      328.978     660.447     -55.618
  H      328.883     662.891     -55.281
  H      329.957     664.471     -52.075
  H      331.222     664.399     -54.617
  H      329.112     664.711     -55.768
  H      328.451     666.812     -53.628
  H      326.936     666.645     -55.669
  H      326.571     664.973     -55.179
  P      330.330     666.366     -57.361
  C      332.369     665.065     -58.329
  O      331.736     665.626     -57.209
  O      330.705     667.854     -57.846
  O      329.316     665.673     -58.226
  H      331.166     668.379     -57.157
  H      333.434     664.939     -58.113
  H      332.270     665.715     -59.221
  H      331.928     664.091     -58.560
  H      323.133     665.476     -51.110
  H      324.722     665.150     -51.759
  H      323.308     664.467     -52.526

 3  4  5  6  7  8  9  10  11  12  13  24  28  29  30  31  32 0
 6-311+G(2d,p)
 ****
 33  34 0
 6-311+G(2d,p)
 ****
 1  2  14  15  16  17  18  19  20  21  22  23  25  26  27 0
 3-21G
 ****
 35  36  37  38  39  40  41  42  43  44  45 0
 3-21G
 ****


