%nproc=1
%NoSave
%Mem=1900MB
#P OB98/GEN NMR

erre ene a

0 1
  C     -834.775     357.470     168.152
  O     -833.555     356.938     168.617
  H     -835.196     356.787     167.410
  H     -834.600     358.438     167.675
  H     -835.494     357.582     168.969
  P     -832.869     357.584     169.913
  C     -833.346     355.426     171.238
  O     -833.503     356.832     171.183
  C     -833.957     354.854     172.524
  O     -835.338     355.309     172.626
  C     -833.972     353.321     172.582
  O     -833.854     352.943     173.961
  C     -835.366     353.007     172.064
  O     -835.758     351.691     172.394
  C     -836.170     354.136     172.712
  N     -837.469     354.337     172.072
  C     -838.427     353.351     172.294
  O     -838.212     352.337     172.955
  N     -839.637     353.540     171.682
  C     -839.949     354.568     170.842
  O     -841.042     354.672     170.295
  C     -838.885     355.555     170.611
  C     -837.711     355.400     171.233
  O     -832.902     359.074     169.987
  O     -831.372     357.022     169.892
  H     -834.995     351.083     172.317
  H     -830.762     357.669     170.302
  H     -840.343     352.840     171.836
  H     -839.102     356.382     169.943
  H     -836.910     356.113     171.084
  H     -836.346     353.928     173.780
  H     -835.399     353.091     170.974
  H     -833.181     352.860     171.988
  H     -833.419     355.275     173.380
  H     -832.273     355.204     171.211
  H     -833.824     354.966     170.369
  P     -832.474     352.414     174.582
  C     -832.050     354.527     175.993
  O     -831.560     353.674     174.962
  O     -831.781     351.383     173.753
  O     -832.879     351.812     176.011
  H     -832.252     351.106     176.261
  H     -831.357     355.326     176.155
  H     -832.164     353.965     176.897
  H     -832.997     354.930     175.702

 6  7  8  9  10  11  12  13  14  15  16  26  31  32  33  34  35 0
 6-311+G(2d,p)
 ****
 36  37 0
 6-311+G(2d,p)
 ****
 1  2  3  4  5  17  18  19  20  21  22  23  24  25 0
 3-21G
 ****
 27  28  29  30  38  39  40  41  42  43  44  45 0
 3-21G
 ****


