%nproc=1
%NoSave
%Mem=1900MB
#P OB98/GEN NMR

erre ene a

0 1
  C     -195.069      48.881     548.935
  O     -193.681      48.508     548.797
  P     -193.047      48.050     547.406
  C     -190.622      48.115     546.491
  O     -191.472      47.795     547.602
  C     -189.156      48.226     546.908
  O     -188.936      49.422     547.699
  C     -188.656      47.081     547.787
  O     -188.416      45.911     547.001
  C     -187.410      47.705     548.401
  O     -186.283      47.615     547.490
  C     -187.845      49.166     548.585
  N     -188.197      49.468     549.980
  C     -187.190      49.320     550.932
  O     -186.069      48.891     550.593
  N     -187.462      49.628     552.243
  C     -188.668      49.977     552.573
  N     -188.895      50.292     553.888
  C     -189.789      50.058     551.618
  C     -189.487      49.796     550.357
  O     -193.374      48.945     546.251
  O     -193.625      46.568     547.154
  H     -186.541      48.110     546.679
  H     -193.695      46.421     546.190
  H     -190.783      50.322     551.950
  H     -190.248      49.831     549.583
  H     -187.041      49.850     548.287
  H     -187.098      47.211     549.334
  H     -189.387      46.859     548.580
  H     -188.543      48.309     546.000
  H     -188.093      50.229     554.520
  H     -190.956      49.090     546.081
  H     -189.792      50.566     554.261
  H     -190.746      47.348     545.724
  P     -189.421      44.668     547.127
  C     -189.872      42.644     545.605
  O     -188.904      43.537     546.110
  O     -190.873      44.989     547.029
  O     -189.066      44.026     548.554
  H     -189.873      43.628     548.936
  H     -189.526      42.213     544.661
  H     -190.840      43.156     545.432
  H     -190.046      41.828     546.333
  H     -195.267      49.150     549.952
  H     -195.690      48.055     548.658
  H     -195.279      49.715     548.298

 3  4  5  6  7  8  9  10  11  12  13  23  27  28  29  30  32 0
 6-311+G(2d,p)
 ****
 34  35 0
 6-311+G(2d,p)
 ****
 1  2  14  15  16  17  18  19  20  21  22  24  25  26 0
 3-21G
 ****
 31  33  36  37  38  39  40  41  42  43  44  45  46 0
 3-21G
 ****


