%nproc=1
%NoSave
%Mem=1900MB
#P OB98/GEN NMR

erre ene a

0 1
  C     2193.689     -24.173    -155.354
  O     2192.949     -24.314    -154.111
  P     2192.134     -25.688    -153.843
  C     2193.752     -26.814    -152.164
  O     2193.194     -26.877    -153.488
  C     2194.504     -28.132    -151.865
  O     2193.538     -29.259    -151.665
  C     2195.451     -28.568    -153.016
  O     2196.590     -29.246    -152.489
  C     2194.584     -29.609    -153.758
  O     2195.429     -30.454    -154.547
  C     2193.889     -30.278    -152.568
  N     2191.967     -34.696    -154.399
  C     2193.216     -34.360    -153.990
  N     2193.637     -33.166    -153.490
  C     2192.605     -32.291    -153.407
  C     2191.273     -32.505    -153.749
  C     2190.960     -33.776    -154.250
  N     2189.700     -34.122    -154.649
  N     2190.517     -31.341    -153.507
  C     2191.405     -30.453    -153.084
  N     2192.705     -31.006    -152.986
  O     2191.141     -26.074    -154.878
  O     2191.421     -25.426    -152.406
  H     2196.175     -30.714    -154.035
  H     2190.509     -25.716    -152.479
  H     2193.986     -35.102    -154.091
  H     2191.125     -29.463    -152.874
  H     2194.541     -30.988    -152.046
  H     2193.871     -29.102    -154.377
  H     2195.770     -27.765    -153.657
  H     2195.047     -28.027    -150.927
  H     2192.954     -26.690    -151.413
  H     2189.564     -34.992    -155.101
  H     2188.951     -33.436    -154.724
  H     2194.418     -25.955    -152.077
  P     2197.685     -28.314    -151.758
  C     2197.756     -29.651    -149.461
  O     2197.429     -28.396    -150.200
  O     2197.750     -26.912    -152.346
  O     2199.038     -29.158    -152.008
  H     2198.992     -30.071    -151.736
  H     2197.557     -29.447    -148.436
  H     2198.750     -29.892    -149.696
  H     2197.020     -30.404    -149.837
  H     2194.168     -23.217    -155.377
  H     2193.015     -24.255    -156.181
  H     2194.428     -24.944    -155.418

 3  4  5  6  7  8  9  10  11  12  22  25  29  30  31  32 0
 6-311+G(2d,p)
 ****
 33  36  37 0
 6-311+G(2d,p)
 ****
 1  2  13  14  15  16  17  18  19  20  21  23  24  26 0
 3-21G
 ****
 27  28  34  35  38  39  40  41  42  43  44  45  46  47  48 0
 3-21G
 ****


