%nproc=1
%NoSave
%Mem=1900MB
#P OB98/GEN NMR

erre ene a

0 1
  C      -69.206    -380.528     413.943
  O      -69.927    -380.154     415.105
  P      -70.771    -381.294     415.862
  C      -72.391    -383.156     415.035
  O      -71.794    -381.890     414.779
  C      -73.197    -383.612     413.823
  O      -72.346    -383.774     412.670
  C      -73.889    -384.960     414.001
  O      -75.103    -384.853     414.730
  C      -74.166    -385.338     412.558
  O      -75.338    -384.650     412.083
  C      -72.915    -384.818     411.843
  N      -72.114    -389.433     409.919
  C      -73.208    -388.602     409.797
  N      -74.266    -389.096     409.109
  N      -73.269    -387.396     410.294
  C      -72.141    -387.038     410.961
  C      -70.992    -387.772     411.147
  C      -70.949    -389.112     410.604
  O      -70.026    -389.914     410.728
  N      -70.063    -387.068     411.871
  C      -70.644    -385.911     412.118
  N      -71.923    -385.858     411.625
  O      -71.717    -380.462     416.846
  O      -69.943    -382.299     416.587
  H      -76.032    -384.779     412.760
  H      -72.075    -381.049     417.541
  H      -72.121    -390.358     409.524
  H      -70.187    -385.096     412.661
  H      -73.153    -384.374     410.869
  H      -74.352    -386.410     412.429
  H      -74.308    -390.040     408.754
  H      -73.209    -385.696     414.451
  H      -75.107    -388.531     409.056
  H      -73.934    -382.831     413.591
  H      -73.046    -383.074     415.905
  H      -71.606    -383.881     415.260
  P      -75.585    -386.157     415.529
  C      -75.953    -388.545     414.568
  O      -76.160    -387.150     414.414
  O      -76.887    -385.647     416.305
  O      -74.558    -386.725     416.457
  H      -77.033    -386.174     417.110
  H      -76.625    -389.080     413.890
  H      -76.174    -388.865     415.592
  H      -74.924    -388.796     414.316
  H      -68.696    -379.674     413.549
  H      -69.885    -380.908     413.209
  H      -68.492    -381.285     414.194

 3  4  5  6  7  8  9  10  11  12  23  26  30  31 0
 6-311+G(2d,p)
 ****
 33  35  36  37  38 0
 6-311+G(2d,p)
 ****
 1  2  13  14  15  16  17  18  19  20  21  22  24  25 0
 3-21G
 ****
 27  28  29  32  34  39  40  41  42  43  44  45  46  47  48  49 0
 3-21G
 ****


