%nproc=1
%NoSave
%Mem=1900MB
#P OB98/GEN NMR

erre ene a

0 1
  C     -397.062     247.802      76.237
  O     -398.095     248.747      76.051
  H     -396.936     247.238      75.307
  H     -397.315     247.107      77.038
  H     -396.120     248.310      76.466
  P     -398.556     249.630      77.308
  C     -398.883     251.547      75.606
  O     -399.413     250.850      76.723
  C     -399.747     252.771      75.265
  O     -400.995     252.313      74.663
  C     -400.119     253.630      76.489
  O     -400.264     254.979      76.034
  C     -401.465     253.040      76.864
  O     -402.158     253.877      77.761
  C     -402.076     252.828      75.477
  N     -403.216     251.926      75.498
  C     -404.474     252.520      75.342
  O     -404.573     253.737      75.219
  N     -405.588     251.720      75.375
  C     -405.461     250.448      75.607
  N     -406.609     249.714      75.635
  C     -404.156     249.794      75.830
  C     -403.085     250.584      75.761
  O     -397.473     250.023      78.257
  O     -399.661     248.724      78.029
  H     -402.964     253.428      78.104
  H     -399.289     248.328      78.837
  H     -404.111     248.736      76.034
  H     -402.084     250.192      75.911
  H     -402.392     253.783      75.034
  H     -401.335     252.077      77.374
  H     -399.375     253.572      77.290
  H     -399.229     253.372      74.506
  H     -407.478     250.206      75.484
  H     -398.870     250.855      74.759
  H     -406.633     248.725      75.821
  H     -397.857     251.871      75.814
  P     -399.018     255.975      75.851
  C     -399.908     256.632      73.518
  O     -399.390     257.091      74.760
  O     -397.721     255.282      75.591
  O     -398.949     256.805      77.221
  H     -398.019     257.041      77.399
  H     -400.113     257.470      72.885
  H     -400.811     256.084      73.689
  H     -399.189     255.996      73.045

 6  7  8  9  10  11  12  13  14  15  16  26  30  31  32  33  35 0
 6-311+G(2d,p)
 ****
 37  38 0
 6-311+G(2d,p)
 ****
 1  2  3  4  5  17  18  19  20  21  22  23  24  25 0
 3-21G
 ****
 27  28  29  34  36  39  40  41  42  43  44  45  46 0
 3-21G
 ****


