%nproc=1
%NoSave
%Mem=1900MB
#P OB98/GEN NMR

erre ene a

0 1
  C     -302.771     506.757     -16.136
  O     -303.615     507.904     -16.104
  P     -305.199     507.653     -16.046
  C     -305.970     508.699     -18.290
  O     -305.673     507.508     -17.571
  C     -307.230     508.516     -19.130
  O     -306.949     507.654     -20.245
  C     -308.396     507.866     -18.395
  O     -309.103     508.800     -17.594
  C     -309.247     507.385     -19.561
  O     -310.043     508.475     -20.060
  C     -308.185     506.982     -20.600
  N     -310.131     502.440     -21.728
  C     -310.694     503.696     -21.830
  N     -311.947     503.751     -22.334
  N     -310.085     504.796     -21.473
  C     -308.826     504.592     -21.028
  C     -308.157     503.398     -20.878
  C     -308.856     502.182     -21.229
  O     -308.430     501.034     -21.095
  N     -306.881     503.595     -20.407
  C     -306.765     504.902     -20.313
  N     -307.929     505.554     -20.649
  O     -305.775     509.084     -15.612
  O     -305.630     506.575     -15.112
  H     -310.481     508.164     -20.872
  H     -306.638     508.973     -15.168
  H     -310.635     501.626     -22.032
  H     -305.868     505.418     -20.005
  H     -308.460     507.317     -21.603
  H     -309.942     506.583     -19.283
  H     -312.413     502.956     -22.744
  H     -308.058     507.004     -17.807
  H     -312.364     504.664     -22.451
  H     -307.523     509.499     -19.525
  H     -305.132     508.942     -18.949
  H     -306.103     509.519     -17.574
  P     -310.192     508.191     -16.576
  C     -312.396     508.745     -17.842
  O     -311.433     507.765     -17.493
  O     -310.721     509.482     -15.791
  O     -309.654     507.147     -15.654
  H     -311.050     509.229     -14.906
  H     -311.925     509.721     -18.009
  H     -313.137     508.828     -17.048
  H     -312.891     508.437     -18.765
  H     -301.748     507.068     -16.173
  H     -302.998     506.171     -17.002
  H     -302.933     506.170     -15.256

 3  4  5  6  7  8  9  10  11  12  23  26  30  31  33  0
 6-311+G(2d,p)
 ****
 35  36  37  38 0
 6-311+G(2d,p)
 ****
 1  2  13  14  15  16  17  18  19  20  21  22  24  25  27  28  29 0
 3-21G
 ****
 32  34  39  40  41  42  43  44  45  46  47  48  49 0
 3-21G
 ****


