%nproc=1
%NoSave
%Mem=1900MB
#P OB98/GEN NMR

erre ene a

0 1
  C       61.615     -24.864       8.396
  O       60.646     -24.021       9.031
  P       60.529     -23.857      10.624
  C       62.301     -22.002      10.879
  O       60.935     -22.359      11.036
  C       62.576     -20.575      11.367
  O       61.772     -19.621      10.607
  C       62.273     -20.342      12.858
  O       63.295     -19.471      13.352
  C       60.923     -19.643      12.799
  O       60.591     -18.946      13.985
  C       61.144     -18.753      11.573
  N       59.942     -18.143      11.016
  C       60.105     -17.187      10.006
  O       61.220     -16.825       9.638
  N       58.981     -16.635       9.438
  C       57.803     -16.995       9.842
  N       56.735     -16.417       9.231
  C       57.586     -17.982      10.913
  C       58.686     -18.511      11.446
  O       61.271     -24.903      11.390
  O       58.962     -23.931      10.946
  H       58.831     -24.386      11.799
  H       61.048     -18.085      13.965
  H       56.587     -18.260      11.215
  H       58.611     -19.267      12.221
  H       61.871     -17.970      11.819
  H       60.147     -20.394      12.625
  H       62.274     -21.260      13.453
  H       63.626     -20.340      11.151
  H       56.923     -15.750       8.491
  H       62.557     -22.067       9.818
  H       55.775     -16.629       9.460
  H       62.923     -22.719      11.426
  P       64.550     -20.086      14.138
  C       66.421     -19.866      12.339
  O       65.874     -19.396      13.554
  O       64.644     -21.559      13.506
  O       64.424     -20.171      15.624
  H       65.076     -22.154      14.146
  H       66.690     -19.005      11.721
  H       65.720     -20.491      11.782
  H       67.324     -20.443      12.555
  H       61.496     -24.807       7.334
  H       61.473     -25.875       8.717
  H       62.599     -24.540       8.662

 3  4  5  6  7  8  9  10  11  12  13  24  27  28  29  30  32 0
 6-311+G(2d,p)
 ****
 34  35 0
 6-311+G(2d,p)
 ****
 1  2  14  15  16  17  18  19  20  21  22  23  25  26 0
 3-21G
 ****
 31  33  36  37  38  39  40  41  42  43  44  45  46 0
 3-21G
 ****


