%nproc=1
%NoSave
%Mem=1900MB
#P OB98/GEN NMR

erre ene a

0 1
  C     -247.837     -40.646    -415.318
  O     -248.238     -41.418    -416.434
  H     -247.301     -39.764    -415.675
  H     -247.170     -41.229    -414.677
  H     -248.713     -40.323    -414.748
  P     -249.063     -42.758    -416.124
  C     -251.387     -41.589    -416.100
  O     -250.399     -42.300    -415.363
  C     -252.712     -42.340    -416.042
  O     -252.586     -43.614    -416.715
  C     -253.167     -42.675    -414.627
  O     -253.751     -41.565    -413.968
  C     -254.150     -43.804    -414.895
  O     -255.445     -43.301    -415.254
  C     -253.511     -44.530    -416.085
  N     -254.120     -49.182    -414.073
  C     -255.009     -48.233    -414.439
  N     -254.768     -47.021    -414.981
  C     -253.448     -46.840    -415.165
  C     -252.426     -47.714    -414.844
  C     -252.804     -48.942    -414.272
  N     -251.896     -49.899    -413.876
  N     -251.197     -47.159    -415.143
  C     -251.474     -45.972    -415.644
  N     -252.820     -45.738    -415.681
  O     -248.193     -43.460    -414.978
  O     -249.273     -43.658    -417.295
  H     -255.779     -42.825    -414.467
  H     -247.645     -44.165    -415.372
  H     -256.053     -48.475    -414.265
  H     -250.739     -45.252    -415.983
  H     -254.251     -44.817    -416.842
  H     -254.272     -44.432    -414.011
  H     -252.327     -43.071    -414.046
  H     -253.474     -41.749    -416.566
  H     -251.067     -41.502    -417.145
  H     -251.492     -40.585    -415.676
  H     -252.236     -50.725    -413.413
  H     -250.907     -49.683    -413.917
  P     -253.916     -41.645    -412.377
  C     -251.453     -41.167    -411.662
  O     -252.507     -42.112    -411.774
  O     -254.867     -42.913    -412.153
  O     -254.478     -40.413    -411.746
  H     -255.460     -42.754    -411.393
  H     -250.591     -41.642    -411.243
  H     -251.761     -40.363    -411.027
  H     -251.213     -40.783    -412.632

 6  7  8  9  10  11  12  13  14  15  25  28  32  33  34  35 0
 6-311+G(2d,p)
 ****
 36  37  40 0
 6-311+G(2d,p)
 ****
 1  2  3  4  5  16  17  18  19  20  21  22  23  24 0
 3-21G
 ****
 26  27  29  30  31  38  39 41  42  43  44  45  46  47  48 0
 3-21G
 ****


