%nproc=1
%NoSave
%Mem=1900MB
#P OB98/GEN NMR

erre ene a

0 1
  C     -320.350    -228.944    -399.478
  O     -319.186    -229.653    -399.107
  H     -320.056    -228.035    -400.005
  H     -320.909    -228.659    -398.582
  H     -320.985    -229.543    -400.135
  P     -319.326    -231.156    -398.567
  C     -317.846    -230.539    -396.541
  O     -318.038    -231.414    -397.641
  C     -316.710    -231.049    -395.653
  O     -317.037    -232.406    -395.231
  C     -315.347    -231.094    -396.370
  O     -314.319    -230.807    -395.415
  C     -315.273    -232.550    -396.786
  O     -313.952    -232.955    -397.059
  C     -315.908    -233.236    -395.576
  N     -316.295    -234.610    -395.881
  C     -315.307    -235.581    -395.749
  O     -314.150    -235.336    -395.403
  N     -315.664    -236.853    -396.095
  C     -316.856    -237.222    -396.656
  O     -317.099    -238.361    -397.024
  C     -317.845    -236.143    -396.823
  C     -317.524    -234.904    -396.430
  O     -319.571    -232.203    -399.602
  O     -320.504    -231.078    -397.485
  H     -313.918    -233.917    -397.196
  H     -320.892    -231.961    -397.340
  H     -314.965    -237.570    -395.993
  H     -318.793    -236.394    -397.284
  H     -318.222    -234.083    -396.553
  H     -315.221    -233.234    -394.723
  H     -315.864    -232.718    -397.692
  H     -315.281    -230.401    -397.214
  H     -316.659    -230.435    -394.747
  H     -318.783    -230.502    -395.968
  H     -317.616    -229.534    -396.911
  P     -313.577    -229.379    -395.373
  C     -311.213    -230.308    -395.767
  O     -312.051    -229.550    -394.900
  O     -314.330    -228.317    -394.635
  O     -313.436    -228.966    -396.916
  H     -313.697    -228.033    -397.026
  H     -310.226    -230.357    -395.356
  H     -311.177    -229.839    -396.728
  H     -311.607    -231.298    -395.868

 6  7  8  9  10  11  12  13  14  15  16  26  31  32  33  34  35 0
 6-311+G(2d,p)
 ****
 36  37 0
 6-311+G(2d,p)
 ****
 1  2  3  4  5  17  18  19  20  21  22  23  24  25 0
 3-21G
 ****
 27  28  29  30  38  39  40  41  42  43  44  45 0
 3-21G
 ****


