%nproc=1
%NoSave
%Mem=1900MB
#P OB98/GEN NMR

erre ene a

0 1
  C      -73.254    -188.914    -424.850
  O      -73.276    -188.324    -426.129
  H      -73.055    -188.129    -424.111
  H      -72.462    -189.661    -424.780
  H      -74.222    -189.371    -424.622
  P      -73.360    -189.276    -427.425
  C      -71.819    -191.089    -428.379
  O      -71.896    -189.948    -427.535
  C      -70.407    -191.678    -428.398
  O      -69.502    -190.760    -429.068
  C      -69.832    -191.951    -427.003
  O      -69.244    -193.256    -426.974
  C      -68.757    -190.885    -426.837
  O      -67.755    -191.266    -425.898
  C      -68.295    -190.707    -428.287
  N      -67.563    -189.465    -428.505
  C      -66.236    -189.436    -428.066
  O      -65.751    -190.412    -427.494
  N      -65.502    -188.292    -428.252
  C      -66.055    -187.244    -428.775
  N      -65.280    -186.137    -428.920
  C      -67.473    -187.214    -429.211
  C      -68.156    -188.350    -429.057
  O      -73.835    -188.601    -428.666
  O      -74.282    -190.499    -426.963
  H      -67.487    -192.194    -426.091
  H      -74.643    -190.956    -427.764
  H      -67.893    -186.317    -429.637
  H      -69.194    -188.424    -429.356
  H      -67.653    -191.546    -428.595
  H      -69.223    -189.955    -426.479
  H      -70.575    -191.894    -426.211
  H      -70.420    -192.589    -429.007
  H      -64.317    -186.201    -428.610
  H      -72.125    -190.798    -429.391
  H      -65.609    -185.266    -429.312
  H      -72.515    -191.847    -428.000
  P      -69.879    -194.297    -425.933
  C      -69.592    -194.856    -423.416
  O      -69.100    -194.125    -424.533
  O      -69.368    -195.716    -426.478
  O      -71.369    -194.233    -425.850
  H      -70.080    -196.154    -426.980
  H      -68.985    -194.649    -422.559
  H      -69.559    -195.903    -423.632
  H      -70.602    -194.565    -423.216

 6  7  8  9  10  11  12  13  14  15  16  26  30  31  32  33  35 0
 6-311+G(2d,p)
 ****
 37  38 0
 6-311+G(2d,p)
 ****
 1  2  3  4  5  17  18  19  20  21  22  23  24  25 0
 3-21G
 ****
 27  28  29  34  36  39  40  41  42  43  44  45  46 0
 3-21G
 ****


