%nproc=1
%NoSave
%Mem=1900MB
#P OB98/GEN NMR

erre ene a

0 1
  C      410.334    -105.218     -26.628
  O      409.513    -105.654     -25.567
  H      411.108    -105.970     -26.804
  H      410.819    -104.268     -26.385
  H      409.741    -105.106     -27.542
  P      408.460    -104.607     -24.946
  C      408.689    -102.212     -24.008
  O      409.351    -103.445     -24.284
  C      409.337    -101.493     -22.822
  O      409.150    -102.263     -21.614
  C      410.842    -101.324     -22.956
  O      411.232    -100.407     -23.954
  C      411.277    -101.091     -21.516
  O      411.186     -99.730     -21.106
  C      410.244    -101.944     -20.732
  N      410.849    -103.141     -20.156
  C      411.145    -103.077     -18.801
  O      410.943    -102.080     -18.104
  N      411.726    -104.195     -18.263
  C      412.080    -105.317     -18.951
  O      412.641    -106.272     -18.420
  C      411.764    -105.318     -20.389
  C      411.171    -104.246     -20.920
  O      407.435    -105.188     -24.018
  O      407.834    -103.894     -26.233
  H      411.554     -99.186     -21.831
  H      406.994    -103.427     -26.007
  H      411.941    -104.169     -17.279
  H      412.032    -106.193     -20.968
  H      410.931    -104.218     -21.979
  H      409.818    -101.356     -19.909
  H      412.312    -101.407     -21.353
  H      411.270    -102.289     -23.253
  H      408.838    -100.527     -22.687
  H      407.644    -102.443     -23.763
  H      408.709    -101.574     -24.900
  P      412.352    -100.723     -25.050
  C      414.861    -101.410     -25.038
  O      413.758    -100.905     -24.288
  O      412.318     -99.912     -26.304
  O      411.983    -102.244     -25.448
  H      412.194    -102.358     -26.395
  H      415.722    -101.477     -24.406
  H      415.069    -100.751     -25.855
  H      414.620    -102.381     -25.416

 6  7  8  9  10  11  12  13  14  15  16  26  31  32  33  34  35 0
 6-311+G(2d,p)
 ****
 36  37 0
 6-311+G(2d,p)
 ****
 1  2  3  4  5  17  18  19  20  21  22  23  24  25 0
 3-21G
 ****
 27  28  29  30  38  39  40  41  42  43  44  45 0
 3-21G
 ****


