%nproc=1
%NoSave
%Mem=1900MB
#P OB98/GEN NMR

erre ene a

0 1
  C      243.296     -27.012    -301.991
  O      244.290     -26.959    -300.966
  P      244.703     -25.500    -300.437
  C      246.329     -24.811    -302.333
  O      245.078     -24.586    -301.700
  C      246.545     -23.869    -303.522
  O      246.639     -22.489    -303.082
  C      247.814     -24.175    -304.323
  O      247.543     -23.869    -305.693
  C      248.808     -23.165    -303.785
  O      249.882     -22.958    -304.702
  C      247.889     -21.952    -303.562
  N      248.447     -20.969    -302.638
  C      249.385     -20.072    -303.156
  O      249.763     -20.173    -304.323
  N      249.905     -19.108    -302.328
  C      249.562     -19.081    -301.078
  N      250.116     -18.104    -300.307
  C      248.621     -20.043    -300.475
  C      248.106     -20.948    -301.306
  O      246.111     -25.753    -299.717
  O      243.709     -24.904    -299.493
  H      250.491     -22.295    -304.313
  H      246.107     -25.355    -298.827
  H      248.379     -19.994    -299.423
  H      247.407     -21.694    -300.960
  H      247.688     -21.442    -304.512
  H      249.224     -23.511    -302.833
  H      248.145     -25.213    -304.235
  H      245.670     -23.944    -304.179
  H      250.751     -17.457    -300.759
  H      246.386     -25.845    -302.682
  H      249.921     -17.989    -299.326
  H      247.127     -24.697    -301.593
  P      247.498     -25.074    -306.748
  C      249.879     -25.442    -307.638
  O      248.938     -25.770    -306.634
  O      247.636     -24.285    -308.140
  O      246.311     -25.974    -306.750
  H      247.552     -24.913    -308.879
  H      250.843     -25.884    -307.374
  H      249.994     -24.360    -307.716
  H      249.558     -25.857    -308.599
  H      243.110     -28.032    -302.255
  H      243.642     -26.478    -302.851
  H      242.391     -26.565    -301.634

 3  4  5  6  7  8  9  10  11  12  13  21  23  27  28  29  30  32 0
 6-311+G(2d,p)
 ****
 34  35 0
 6-311+G(2d,p)
 ****
 1  2  14  15  16  17  18  19  20  22  24  25  26 0
 3-21G
 ****
 31  33  36  37  38  39  40  41  42  43  44  45  46 0
 3-21G
 ****


