%nproc=1
%NoSave
%Mem=1900MB
#P OB98/GEN NMR

erre ene a

0 1
  C     -226.039      83.997      -9.352
  O     -224.640      83.799      -9.312
  H     -226.236      85.015      -9.700
  H     -226.472      83.876      -8.357
  H     -226.504      83.294     -10.050
  P     -224.077      82.401      -8.770
  C     -222.723      83.711      -7.005
  O     -222.691      82.718      -8.025
  C     -221.300      84.033      -6.535
  O     -220.777      82.854      -5.876
  C     -220.365      84.390      -7.699
  O     -219.685      85.630      -7.511
  C     -219.513      83.136      -7.860
  O     -218.238      83.358      -8.426
  C     -219.492      82.546      -6.446
  N     -219.240      81.109      -6.408
  C     -217.998      80.665      -6.852
  O     -217.087      81.392      -7.249
  N     -217.806      79.309      -6.817
  C     -218.712      78.379      -6.403
  O     -218.481      77.175      -6.389
  C     -220.014      78.906      -5.968
  C     -220.216      80.226      -5.991
  O     -224.008      81.299      -9.773
  O     -225.058      82.030      -7.559
  H     -217.852      82.485      -8.641
  H     -225.693      81.350      -7.850
  H     -216.906      78.977      -7.125
  H     -220.761      78.196      -5.642
  H     -221.165      80.649      -5.675
  H     -218.727      83.034      -5.841
  H     -220.044      82.445      -8.528
  H     -220.934      84.553      -8.621
  H     -221.347      84.835      -5.791
  H     -223.320      83.321      -6.173
  H     -223.201      84.619      -7.390
  P     -219.982      86.962      -8.337
  C     -217.765      86.713      -9.716
  O     -218.591      87.524      -8.894
  O     -220.891      87.941      -7.677
  O     -220.728      86.419      -9.661
  H     -221.367      87.112      -9.926
  H     -216.885      87.259      -9.987
  H     -218.301      86.439     -10.601
  H     -217.486      85.830      -9.180

 6  7  8  9  10  11  12  13  14  15  16  26  31  32  33  34  35 0
 6-311+G(2d,p)
 ****
 36  37 0
 6-311+G(2d,p)
 ****
 1  2  3  4  5  17  18  19  20  21  22  23  24  25 0
 3-21G
 ****
 27  28  29  30  38  39  40  41  42  43  44  45 0
 3-21G
 ****


