%nproc=1
%NoSave
%Mem=1900MB
#P OB98/GEN NMR

erre ene a

0 1
  C        4.323       5.607      -5.990
  O        3.397       6.091      -5.042
  H        5.259       6.160      -5.876
  H        3.937       5.775      -6.999
  H        4.524       4.543      -5.846
  P        2.123       5.192      -4.683
  C        1.757       2.877      -3.605
  O        2.649       3.718      -4.325
  C        2.199       1.414      -3.638
  O        2.272       0.946      -5.003
  C        3.595       1.216      -3.048
  O        3.645       1.086      -1.639
  C        4.042      -0.073      -3.732
  O        3.570      -1.225      -3.014
  C        3.368       0.019      -5.102
  N        6.067      -1.300      -9.233
  C        5.305      -2.097      -8.402
  N        5.311      -3.421      -8.673
  N        4.619      -1.635      -7.390
  C        4.785      -0.308      -7.183
  C        5.524       0.582      -7.930
  C        6.237       0.068      -9.082
  O        6.932       0.730      -9.846
  N        5.451       1.854      -7.416
  C        4.731       1.719      -6.321
  N        4.282       0.431      -6.151
  O        1.409       4.969      -6.102
  O        1.175       5.793      -3.691
  H        3.639      -2.001      -3.599
  H        0.457       4.811      -5.972
  H        6.552      -1.706     -10.014
  H        4.485       2.521      -5.634
  H        2.943      -0.946      -5.406
  H        5.132      -0.152      -3.773
  H        5.914      -3.836      -9.367
  H        4.262       2.023      -3.367
  H        4.990      -4.059      -7.944
  H        1.451       0.799      -3.124
  H        0.778       2.982      -4.076
  H        1.659       3.224      -2.573
  P        5.027       1.306      -0.863
  C        6.494       3.409      -0.417
  O        5.556       2.767      -1.253
  O        6.026       0.320      -1.631
  O        4.979       1.020       0.598
  H        6.099      -0.526      -1.151
  H        6.736       4.369      -0.824
  H        7.381       2.814      -0.354
  H        6.076       3.531       0.560

 6  7  8  9  10  11  12  13  14  15  26  29  33  34 0
 6-311+G(2d,p)
 ****
 36  38  39  40  41 0
 6-311+G(2d,p)
 ****
 1  2  3  4  5  16  17  18  19  20  21  22  23  24  25 0
 3-21G
 ****
 27  28  30  31  32  35  37  42  43  44  45  46  47 0
 3-21G
 ****
 48  49 0
 3-21G
 ****


