%nproc=1
%NoSave
%Mem=1900MB
#P OB98/GEN NMR

erre ene a

0 1
  C      -11.745     -20.887     -48.870
  O      -11.353     -22.192     -48.499
  H      -12.185     -20.392     -48.000
  H      -12.493     -20.927     -49.666
  H      -10.876     -20.313     -49.202
  P      -10.733     -23.118     -49.653
  C      -13.095     -24.015     -50.259
  O      -11.908     -23.379     -50.713
  C      -14.134     -24.017     -51.374
  O      -14.556     -22.663     -51.656
  C      -13.622     -24.566     -52.699
  O      -13.579     -25.982     -52.713
  C      -14.651     -23.998     -53.663
  O      -15.828     -24.820     -53.722
  C      -14.968     -22.622     -53.037
  N      -14.334     -21.529     -53.766
  C      -14.901     -21.215     -54.998
  O      -15.873     -21.808     -55.463
  N      -14.287     -20.215     -55.701
  C      -13.164     -19.541     -55.319
  O      -12.621     -18.704     -56.030
  C      -12.617     -19.904     -54.001
  C      -13.212     -20.873     -53.300
  O      -10.554     -24.532     -48.925
  O       -9.455     -22.622     -50.244
  H       -9.617     -24.670     -48.691
  H      -16.437     -24.378     -54.345
  H      -14.676     -19.981     -56.601
  H      -11.729     -19.383     -53.664
  H      -12.814     -21.173     -52.335
  H      -16.051     -22.444     -53.037
  H      -14.258     -23.935     -54.677
  H      -12.641     -24.136     -52.935
  H      -15.010     -24.585     -51.032
  H      -13.496     -23.469     -49.398
  H      -12.854     -25.037     -49.946
  P      -12.391     -26.705     -53.513
  C      -13.853     -26.704     -55.696
  O      -12.627     -26.383     -55.067
  O      -12.808     -28.241     -53.365
  O      -11.032     -26.367     -53.003
  H      -13.770     -28.378     -53.385
  H      -13.813     -26.413     -56.725
  H      -14.651     -26.184     -55.209
  H      -14.022     -27.758     -55.630

 6  7  8  9  10  11  12  13  14  15  16  27  31  32  33  34  35 0
 6-311+G(2d,p)
 ****
 36  37 0
 6-311+G(2d,p)
 ****
 1  2  3  4  5  17  18  19  20  21  22  23  24  25 0
 3-21G
 ****
 26  28  29  30  38  39  40  41  42  43  44  45 0
 3-21G
 ****


