%nproc=1
%NoSave
%Mem=1900MB
#P OB98/GEN NMR

erre ene a

0 1
  C      200.627    -342.179     -94.205
  O      201.116    -341.545     -95.395
  P      202.652    -341.085     -95.417
  C      203.277    -343.323     -96.586
  O      203.419    -341.907     -96.568
  C      204.236    -343.973     -97.599
  O      203.973    -343.491     -98.943
  C      205.716    -343.674     -97.312
  O      206.495    -344.791     -97.767
  C      205.991    -342.482     -98.203
  O      207.397    -342.305     -98.425
  C      205.177    -342.862     -99.436
  N      206.902    -339.831    -103.083
  C      207.518    -340.895    -102.440
  N      208.758    -341.214    -102.864
  N      206.957    -341.580    -101.476
  C      205.696    -341.161    -101.192
  C      204.985    -340.124    -101.745
  C      205.625    -339.359    -102.793
  O      205.140    -338.397    -103.394
  N      203.744    -340.001    -101.173
  C      203.712    -340.960    -100.262
  N      204.852    -341.715    -100.264
  O      203.233    -341.720     -94.057
  O      202.840    -339.603     -95.449
  H      207.502    -341.867     -99.297
  H      203.395    -341.003     -93.409
  H      207.384    -339.326    -103.812
  H      202.886    -341.149     -99.590
  H      205.700    -343.588    -100.076
  H      205.607    -341.568     -97.735
  H      209.228    -340.760    -103.631
  H      205.952    -343.483     -96.258
  H      209.217    -342.013    -102.433
  H      204.066    -345.053     -97.592
  H      202.247    -343.595     -96.841
  H      203.444    -343.710     -95.575
  P      207.408    -345.535     -96.685
  C      205.160    -346.668     -96.061
  O      206.560    -346.795     -96.176
  O      207.393    -344.537     -95.425
  O      208.800    -345.836     -97.139
  H      208.186    -344.666     -94.881
  H      204.678    -347.172     -96.910
  H      204.841    -345.618     -96.041
  H      204.831    -347.145     -95.126
  H      199.595    -342.429     -94.333
  H      200.732    -341.511     -93.376
  H      201.190    -343.070     -94.019

 3  4  5  6  7  8  9  10  11  12  23  26  30  31 0
 6-311+G(2d,p)
 ****
 33  35  36  37  38 0
 6-311+G(2d,p)
 ****
 1  2  13  14  15  16  17  18  19  20  21  22  24  25 0
 3-21G
 ****
 27  28  29  32  34  39  40  41  42  43  44  45  46  47  48  49 0
 3-21G
 ****


