%nproc=1
%NoSave
%Mem=1900MB
#P OB98/GEN NMR

erre ene a

0 1
  C     -248.919    -108.512     -46.906
  O     -248.994    -108.539     -48.321
  P     -249.113    -109.972     -49.036
  C     -246.656    -109.742     -49.951
  O     -247.609    -110.495     -49.217
  C     -245.300    -109.771     -49.238
  O     -245.457    -109.352     -47.866
  C     -244.649    -111.145     -49.172
  O     -244.057    -111.510     -50.409
  C     -243.661    -110.946     -48.026
  O     -242.481    -110.272     -48.497
  C     -244.457    -110.027     -47.079
  N     -245.064    -110.743     -45.955
  C     -244.326    -110.769     -44.775
  O     -243.228    -110.229     -44.653
  N     -244.894    -111.460     -43.735
  C     -246.060    -112.164     -43.778
  O     -246.499    -112.801     -42.830
  C     -246.778    -112.127     -45.064
  C     -246.256    -111.430     -46.074
  O     -249.573    -109.530     -50.503
  O     -250.045    -110.902     -48.333
  H     -249.264    -108.633     -50.725
  H     -242.772    -109.400     -48.826
  H     -244.390    -111.475     -42.859
  H     -247.704    -112.681     -45.140
  H     -246.763    -111.401     -47.033
  H     -243.804    -109.241     -46.675
  H     -243.340    -111.893     -47.577
  H     -245.396    -111.896     -48.884
  H     -244.637    -109.054     -49.741
  H     -247.006    -108.707     -50.033
  H     -246.566    -110.165     -50.957
  P     -244.801    -112.665     -51.245
  C     -242.814    -114.346     -51.011
  O     -244.168    -114.054     -50.756
  O     -244.177    -112.440     -52.705
  O     -246.292    -112.581     -51.189
  H     -243.223    -112.263     -52.684
  H     -242.488    -115.127     -50.321
  H     -242.181    -113.464     -50.874
  H     -242.708    -114.716     -52.036
  H     -248.844    -107.498     -46.572
  H     -248.057    -109.058     -46.584
  H     -249.799    -108.959     -46.494

 3  4  5  6  7  8  9  10  11  12  13  24  28  29  30  31  32 0
 6-311+G(2d,p)
 ****
 33  34 0
 6-311+G(2d,p)
 ****
 1  2  14  15  16  17  18  19  20  21  22  23  25  26  27 0
 3-21G
 ****
 35  36  37  38  39  40  41  42  43  44  45 0
 3-21G
 ****


