%nproc=1
%NoSave
%Mem=1900MB
#P OB98/GEN NMR

erre ene a

0 1
  C     -241.165    -263.488     259.442
  O     -241.747    -263.997     260.646
  P     -242.855    -265.158     260.589
  C     -244.945    -264.023     261.534
  O     -243.897    -264.947     261.798
  C     -245.404    -263.249     262.781
  O     -245.959    -264.150     263.773
  C     -244.307    -262.433     263.472
  O     -244.956    -261.280     264.010
  C     -243.863    -263.371     264.585
  O     -243.157    -262.702     265.622
  C     -245.205    -264.000     264.989
  N     -245.034    -265.269     265.688
  C     -245.039    -265.235     267.083
  O     -245.121    -264.158     267.672
  N     -244.898    -266.414     267.774
  C     -244.674    -267.512     267.129
  N     -244.519    -268.642     267.870
  C     -244.576    -267.584     265.655
  C     -244.776    -266.440     265.007
  O     -242.307    -266.542     260.475
  O     -243.727    -264.790     259.291
  H     -242.933    -263.360     266.313
  H     -244.080    -265.613     258.898
  H     -244.364    -268.521     265.161
  H     -244.731    -266.388     263.930
  H     -245.764    -263.318     265.645
  H     -243.193    -264.142     264.173
  H     -243.487    -262.156     262.807
  H     -246.218    -262.583     262.471
  H     -244.563    -268.547     268.878
  H     -245.797    -264.568     261.120
  H     -244.228    -269.528     267.478
  H     -244.613    -263.316     260.765
  P     -244.558    -259.797     263.558
  C     -244.798    -258.694     265.859
  O     -245.320    -258.791     264.547
  O     -244.749    -259.505     262.109
  O     -243.017    -259.636     263.989
  H     -242.633    -258.884     263.507
  H     -245.255    -257.839     266.362
  H     -243.712    -258.553     265.834
  H     -245.036    -259.605     266.421
  H     -240.454    -262.726     259.684
  H     -241.933    -263.075     258.822
  H     -240.673    -264.282     258.920

 3  4  5  6  7  8  9  10  11  12  13  23  27  28  29  30  32 0
 6-311+G(2d,p)
 ****
 34  35 0
 6-311+G(2d,p)
 ****
 1  2  14  15  16  17  18  19  20  21  22  24  25  26 0
 3-21G
 ****
 31  33  36  37  38  39  40  41  42  43  44  45  46 0
 3-21G
 ****


