%nproc=1
%NoSave
%Mem=1900MB
#P OB98/GEN NMR

erre ene a

0 1
  C     -523.124    -148.248      87.237
  O     -522.308    -148.524      86.114
  H     -524.069    -148.795      87.165
  H     -522.598    -148.569      88.140
  H     -523.320    -147.176      87.301
  P     -522.953    -148.227      84.676
  C     -523.494    -150.442      83.435
  O     -523.942    -149.450      84.353
  C     -522.404    -151.296      84.081
  O     -522.849    -151.795      85.365
  C     -522.022    -152.539      83.285
  O     -521.150    -152.226      82.207
  C     -521.313    -153.354      84.365
  O     -519.961    -152.880      84.524
  C     -522.136    -153.030      85.614
  N     -522.779    -157.778      87.483
  C     -521.669    -157.049      87.261
  N     -521.571    -155.799      86.755
  C     -522.786    -155.287      86.481
  C     -524.014    -155.918      86.654
  C     -523.985    -157.236      87.186
  N     -525.129    -157.979      87.387
  N     -525.050    -155.093      86.272
  C     -524.459    -153.985      85.875
  N     -523.098    -154.054      85.971
  O     -521.732    -148.458      83.664
  O     -523.545    -146.860      84.508
  H     -519.523    -152.989      83.661
  H     -521.801    -147.819      82.931
  H     -520.730    -157.515      87.526
  H     -524.986    -153.106      85.518
  H     -521.489    -152.854      86.489
  H     -521.258    -154.414      84.128
  H     -522.912    -153.090      82.944
  H     -521.532    -150.652      84.247
  H     -523.084    -149.954      82.543
  H     -525.057    -158.818      87.931
  H     -526.014    -157.556      87.158
  H     -524.348    -151.065      83.153
  P     -520.871    -153.385      81.118
  C     -518.364    -153.993      81.382
  O     -519.716    -154.296      81.741
  O     -520.136    -152.602      79.934
  O     -522.099    -154.107      80.639
  H     -520.281    -153.076      79.089
  H     -517.703    -154.679      81.869
  H     -518.129    -152.994      81.686
  H     -518.249    -154.079      80.322

 6  7  8  9  10  11  12  13  14  15  25  28  32  33  34  35 0
 6-311+G(2d,p)
 ****
 36  39  40 0
 6-311+G(2d,p)
 ****
 1  2  3  4  5  16  17  18  19  20  21  22  23  24 0
 3-21G
 ****
 26  27  29  30  31  37  38  41  42  43  44  45  46  47  48 0
 3-21G
 ****


