%nproc=1
%NoSave
%Mem=1900MB
#P OB98/GEN NMR

erre ene a

0 1
  C      121.930    -223.843      72.650
  O      120.693    -223.689      71.983
  H      122.192    -224.902      72.718
  H      122.704    -223.325      72.078
  H      121.878    -223.406      73.652
  P      119.413    -224.356      72.683
  C      118.107    -223.874      74.872
  O      119.317    -223.710      74.148
  C      118.400    -223.994      76.364
  O      119.201    -225.165      76.620
  C      119.180    -222.826      76.958
  O      118.338    -221.714      77.227
  C      119.698    -223.455      78.241
  O      118.654    -223.471      79.233
  C      120.017    -224.888      77.790
  N      124.849    -224.114      79.283
  C      123.668    -223.865      79.886
  N      122.422    -224.117      79.435
  C      122.467    -224.710      78.230
  C      123.594    -225.049      77.500
  C      124.835    -224.722      78.069
  N      126.037    -224.921      77.408
  N      123.240    -225.630      76.297
  C      121.924    -225.624      76.296
  N      121.412    -225.085      77.445
  O      119.903    -225.858      72.958
  O      118.158    -224.323      71.876
  H      118.437    -222.539      79.426
  H      119.581    -226.436      72.242
  H      123.729    -223.394      80.862
  H      121.303    -225.992      75.492
  H      119.753    -225.630      78.551
  H      120.546    -222.915      78.672
  H      120.029    -222.547      76.327
  H      117.443    -224.128      76.886
  H      117.595    -224.781      74.530
  H      126.760    -224.258      77.673
  H      125.943    -225.123      76.420
  H      117.464    -223.009      74.681
  P      119.015    -220.259      77.257
  C      119.985    -218.716      75.421
  O      119.718    -220.052      75.828
  O      120.243    -220.459      78.263
  O      118.123    -219.152      77.708
  H      120.182    -219.811      78.992
  H      120.451    -218.723      74.458
  H      120.638    -218.251      76.130
  H      119.067    -218.169      75.369

 6  7  8  9  10  11  12  13  14  15  25  28  32  33  34  35 0
 6-311+G(2d,p)
 ****
 36  39  40 0
 6-311+G(2d,p)
 ****
 1  2  3  4  5  16  17  18  19  20  21  22  23  24 0
 3-21G
 ****
 26  27  29  30  31  37  38  41  42  43  44  45  46  47  48 0
 3-21G
 ****


