%nproc=1
%NoSave
%Mem=1900MB
#P OB98/GEN NMR

erre ene a

0 1
  C     -209.708     242.238     -83.419
  O     -211.064     241.848     -83.485
  H     -209.114     241.550     -84.023
  H     -209.358     242.191     -82.385
  H     -209.578     243.252     -83.810
  P     -212.150     242.851     -82.865
  C     -212.136     244.600     -84.788
  O     -212.857     243.584     -84.107
  C     -213.007     245.210     -85.886
  O     -212.434     246.493     -86.272
  C     -213.106     244.352     -87.155
  O     -214.424     244.492     -87.693
  C     -212.112     245.013     -88.093
  O     -212.366     244.762     -89.468
  C     -212.284     246.485     -87.705
  N     -211.152     247.311     -88.120
  C     -211.216     247.897     -89.380
  O     -212.187     247.843     -90.130
  N     -210.091     248.579     -89.771
  C     -208.936     248.704     -89.058
  O     -207.957     249.311     -89.472
  C     -208.926     248.056     -87.739
  C     -210.016     247.397     -87.339
  O     -211.247     244.003     -82.220
  O     -213.095     242.246     -81.881
  H     -211.026     243.787     -81.295
  H     -211.962     245.494     -89.979
  H     -210.122     249.009     -90.681
  H     -208.023     248.124     -87.150
  H     -210.034     246.888     -86.381
  H     -213.209     246.886     -88.134
  H     -211.099     244.665     -87.867
  H     -212.881     243.293     -86.997
  H     -214.002     245.416     -85.474
  H     -211.241     244.167     -85.244
  H     -211.832     245.368     -84.070
  P     -215.464     243.301     -87.415
  C     -216.423     243.836     -85.036
  O     -216.579     243.921     -86.444
  O     -214.596     242.349     -86.468
  O     -215.969     242.664     -88.665
  H     -214.004     242.842     -85.875
  H     -217.259     244.300     -84.556
  H     -215.522     244.336     -84.746
  H     -216.370     242.808     -84.744

 6  7  8  9  10  11  12  13  14  15  16  27  31  32  33  34  35 0
 6-311+G(2d,p)
 ****
 36  37 0
 6-311+G(2d,p)
 ****
 1  2  3  4  5  17  18  19  20  21  22  23  24  25 0
 3-21G
 ****
 26  28  29  30  38  39  40  41  42  43  44  45 0
 3-21G
 ****


