%nproc=1
%NoSave
%Mem=1900MB
#P OB98/GEN NMR

erre ene a

0 1
  C      722.959     300.968      20.193
  O      724.231     301.527      20.472
  P      724.585     303.033      20.057
  C      726.463     302.465      18.389
  O      726.139     303.044      19.649
  C      727.982     302.278      18.264
  O      728.610     303.600      18.186
  C      728.597     301.534      19.462
  O      729.401     300.403      19.112
  C      729.318     302.640      20.219
  O      730.339     302.175      21.085
  C      729.746     303.558      19.072
  N      730.135     304.895      19.544
  C      731.440     305.048      20.003
  O      732.278     304.155      20.029
  N      731.747     306.285      20.499
  C      730.881     307.319      20.698
  O      731.205     308.361      21.238
  C      729.498     307.079      20.225
  C      729.198     305.907      19.648
  O      724.203     304.083      21.046
  O      723.864     303.198      18.631
  H      730.834     301.479      20.610
  H      724.164     302.568      17.950
  H      732.689     306.413      20.842
  H      728.784     307.869      20.374
  H      728.198     305.705      19.299
  H      730.584     303.139      18.512
  H      728.574     303.154      20.844
  H      727.808     301.107      20.109
  H      728.179     301.750      17.326
  H      726.117     303.134      17.592
  H      725.935     301.513      18.274
  P      729.047     298.879      19.445
  C      730.199     298.925      21.771
  O      730.120     298.335      20.493
  O      728.826     298.004      18.248
  O      727.703     298.983      20.318
  H      727.166     298.185      20.178
  H      731.224     298.821      22.147
  H      729.530     298.395      22.453
  H      729.929     299.978      21.744
  H      722.927     299.959      20.549
  H      722.788     300.979      19.137
  H      722.201     301.543      20.683

 3  4  5  6  7  8  9  10  11  12  13  23  28  29  30  31  32 0
 6-311+G(2d,p)
 ****
 33  34 0
 6-311+G(2d,p)
 ****
 1  2  14  15  16  17  18  19  20  21  22  24  25  26  27 0
 3-21G
 ****
 35  36  37  38  39  40  41  42  43  44  45 0
 3-21G
 ****


