%nproc=1
%NoSave
%Mem=1900MB
#P OB98/GEN NMR

erre ene a

0 1
  C      169.670     560.857     282.014
  O      168.790     560.057     282.810
  P      167.552     559.253     282.172
  C      168.350     556.876     282.772
  O      168.054     557.801     281.722
  C      168.265     555.424     282.290
  O      167.005     555.178     281.633
  C      169.347     555.026     281.285
  O      170.569     554.772     281.950
  C      168.703     553.812     280.623
  O      168.877     552.646     281.437
  C      167.227     554.214     280.578
  N      165.174     553.171     276.010
  C      165.411     552.397     277.097
  N      165.964     552.749     278.273
  C      166.264     554.060     278.279
  C      166.092     554.967     277.243
  C      165.518     554.473     276.060
  N      165.296     555.259     274.958
  N      166.551     556.215     277.613
  C      166.978     556.065     278.855
  N      166.829     554.782     279.298
  O      166.815     560.003     281.113
  O      166.586     558.939     283.417
  H      169.831     552.440     281.452
  H      165.665     558.874     283.107
  H      165.107     551.355     277.004
  H      167.398     556.858     279.464
  H      166.569     553.375     280.782
  H      169.136     553.594     279.642
  H      169.480     555.822     280.547
  H      168.306     554.779     283.174
  H      167.628     557.033     283.581
  H      164.907     554.820     274.134
  H      165.593     556.219     274.966
  H      169.354     557.087     283.148
  P      171.922     554.596     281.111
  C      173.549     555.786     282.706
  O      172.863     555.852     281.469
  O      171.746     554.326     279.655
  O      172.669     553.384     281.847
  H      173.220     552.908     281.196
  H      172.867     556.069     283.514
  H      174.379     556.498     282.676
  H      173.940     554.780     282.887
  H      170.417     561.298     282.641
  H      169.110     561.629     281.530
  H      170.141     560.242     281.276

 3  4  5  6  7  8  9  10  11  12  22  25  29  30  31  32 0
 6-311+G(2d,p)
 ****
 33  36  37 0
 6-311+G(2d,p)
 ****
 1  2  13  14  15  16  17  18  19  20  21  23  24  26 0
 3-21G
 ****
 27  28  34  35  38  39  40  41  42  43  44  45  46  47  48 0
 3-21G
 ****


