%nproc=1
%NoSave
%Mem=1900MB
#P OB98/GEN NMR

erre ene a

0 1
  C       84.760     240.325     335.311
  O       83.905     239.385     334.698
  P       83.658     237.967     335.396
  C       85.042     235.875     335.957
  O       84.993     237.096     335.234
  C       85.947     234.867     335.246
  O       87.184     235.503     334.847
  C       86.363     233.687     336.121
  O       85.310     232.750     336.248
  C       87.576     233.173     335.365
  O       87.177     232.345     334.254
  C       88.207     234.484     334.838
  N       92.765     236.789     334.709
  C       91.936     236.360     333.718
  N       90.761     235.716     333.844
  C       90.461     235.504     335.137
  C       91.220     235.867     336.247
  C       92.412     236.556     335.996
  N       93.224     237.065     336.984
  N       90.589     235.452     337.412
  C       89.480     234.848     337.004
  N       89.338     234.925     335.643
  O       82.392     237.267     335.004
  O       83.647     238.315     336.965
  H       86.408     232.786     333.832
  H       82.778     238.064     337.350
  H       92.270     236.555     332.705
  H       88.759     234.378     337.655
  H       88.549     234.386     333.803
  H       88.250     232.578     335.984
  H       86.680     234.043     337.110
  H       85.428     234.516     334.345
  H       84.025     235.467     336.027
  H       93.979     237.669     336.688
  H       92.839     237.170     337.927
  H       85.412     236.076     336.979
  P       85.355     231.638     337.399
  C       86.965     229.769     338.096
  O       86.634     230.719     337.102
  O       84.076     230.910     337.653
  O       85.812     232.467     338.701
  H       85.405     232.074     339.493
  H       87.475     230.274     338.922
  H       87.631     229.009     337.668
  H       86.070     229.264     338.478
  H       84.807     241.209     334.710
  H       85.740     239.906     335.407
  H       84.381     240.573     336.281

 3  4  5  6  7  8  9  10  11  12  22  25  29  30  31  32 0
 6-311+G(2d,p)
 ****
 33  36  37 0
 6-311+G(2d,p)
 ****
 1  2  13  14  15  16  17  18  19  20  21  23  24  26 0
 3-21G
 ****
 27  28  34  35  38  39  40  41  42  43  44  45  46  47  48 0
 3-21G
 ****


