%nproc=1
%NoSave
%Mem=1900MB
#P OB98/GEN NMR

erre ene a

0 1
  C      762.785     383.917     164.365
  O      763.127     382.739     165.067
  P      764.667     382.387     165.332
  C      763.831     379.960     165.071
  O      764.754     380.835     165.729
  C      763.923     378.555     165.663
  O      765.274     378.050     165.557
  C      763.575     378.482     167.147
  O      762.174     378.555     167.332
  C      764.205     377.148     167.532
  O      763.341     376.056     167.173
  C      765.473     377.137     166.664
  N      769.215     375.399     169.660
  C      768.081     374.823     169.204
  N      767.111     375.362     168.441
  C      767.393     376.654     168.170
  C      768.494     377.386     168.593
  C      769.454     376.707     169.358
  N      770.642     377.261     169.776
  N      768.402     378.690     168.132
  C      767.279     378.737     167.454
  N      766.666     377.511     167.394
  O      765.391     383.316     166.243
  O      765.316     382.418     163.866
  H      763.127     376.147     166.229
  H      766.019     383.096     163.839
  H      767.944     373.780     169.487
  H      766.871     379.620     166.979
  H      765.656     376.153     166.223
  H      764.399     377.074     168.600
  H      764.076     379.289     167.694
  H      763.273     377.896     165.074
  H      764.093     379.938     164.011
  H      771.316     376.638     170.187
  H      770.958     378.102     169.310
  H      762.818     380.356     165.186
  P      761.539     379.777     168.148
  C      760.706     378.799     170.372
  O      760.358     379.172     169.055
  O      761.166     380.969     167.336
  O      762.668     380.128     169.235
  H      762.638     381.089     169.421
  H      761.234     377.837     170.355
  H      759.801     378.693     170.959
  H      761.346     379.551     170.834
  H      761.720     383.987     164.283
  H      763.217     383.887     163.386
  H      763.159     384.769     164.894

 3  4  5  6  7  8  9  10  11  12  22  25  29  30  31  32 0
 6-311+G(2d,p)
 ****
 33  36  37 0
 6-311+G(2d,p)
 ****
 1  2  13  14  15  16  17  18  19  20  21  23  24  26 0
 3-21G
 ****
 27  28  34  35  38  39  40  41  42  43  44  45  46  47  48 0
 3-21G
 ****


