%nproc=1
%NoSave
%Mem=1900MB
#P OB98/GEN NMR

erre ene a

0 1
  C      150.427    -299.122     -99.260
  O      150.015    -298.971     -97.912
  P      150.690    -297.875     -96.965
  C      149.792    -298.990     -94.765
  O      150.887    -298.513     -95.517
  C      150.299    -299.454     -93.391
  O      151.199    -300.570     -93.546
  C      151.049    -298.341     -92.662
  O      150.180    -297.644     -91.784
  C      152.152    -299.096     -91.946
  O      151.655    -299.676     -90.728
  C      152.484    -300.205     -92.972
  N      153.401    -299.877     -94.081
  C      154.688    -299.426     -93.799
  O      155.139    -299.307     -92.665
  N      155.450    -299.088     -94.892
  C      155.068    -299.198     -96.195
  O      155.654    -298.670     -97.137
  C      153.821    -299.925     -96.430
  C      153.046    -300.207     -95.381
  O      149.514    -296.813     -96.746
  O      151.927    -297.235     -97.503
  H      152.345    -300.279     -90.393
  H      149.622    -296.051     -97.343
  H      156.335    -298.627     -94.690
  H      153.545    -300.163     -97.449
  H      152.095    -300.715     -95.535
  H      152.891    -301.091     -92.474
  H      152.963    -298.431     -91.657
  H      151.507    -297.655     -93.388
  H      149.444    -299.793     -92.794
  H      149.308    -299.815     -95.290
  H      149.047    -298.197     -94.642
  P      150.134    -296.046     -91.819
  C      148.749    -296.020     -89.662
  O      149.942    -295.597     -90.293
  O      149.170    -295.449     -92.790
  O      151.647    -295.645     -92.165
  H      151.735    -295.463     -93.121
  H      148.823    -295.809     -88.590
  H      148.601    -297.094     -89.805
  H      147.899    -295.469     -90.075
  H      149.858    -299.902     -99.721
  H      151.467    -299.373     -99.289
  H      150.267    -298.205     -99.787

 3  4  5  6  7  8  9  10  11  12  13  23  28  29  30  31  32 0
 6-311+G(2d,p)
 ****
 33  34 0
 6-311+G(2d,p)
 ****
 1  2  14  15  16  17  18  19  20  21  22  24  25  26  27 0
 3-21G
 ****
 35  36  37  38  39  40  41  42  43  44  45 0
 3-21G
 ****


