%nproc=1
%NoSave
%Mem=1900MB
#P OB98/GEN NMR

erre ene a

0 1
  C      949.646     739.170    -434.811
  O      948.632     739.893    -434.147
  H      950.468     738.990    -434.108
  H      950.029     739.754    -435.652
  H      949.262     738.214    -435.163
  P      947.316     740.225    -434.998
  C      945.290     739.879    -433.384
  O      946.235     740.790    -433.949
  C      945.914     739.151    -432.184
  O      946.404     740.147    -431.236
  C      944.913     738.244    -431.430
  O      945.643     737.145    -430.864
  C      944.447     739.174    -430.321
  O      943.824     738.429    -429.293
  C      945.778     739.843    -429.972
  N      945.715     741.741    -425.223
  C      946.008     740.508    -425.718
  N      946.006     740.087    -426.983
  C      945.695     741.094    -427.821
  C      945.388     742.398    -427.484
  C      945.398     742.711    -426.122
  N      945.086     743.971    -425.616
  N      945.096     743.137    -428.612
  C      945.244     742.297    -429.630
  N      945.606     741.047    -429.186
  O      946.760     738.779    -435.387
  O      947.526     741.092    -436.198
  H      943.453     739.018    -428.608
  H      947.098     738.507    -436.253
  H      946.267     739.764    -424.956
  H      945.089     742.521    -430.670
  H      946.452     739.177    -429.414
  H      943.725     739.898    -430.689
  H      944.117     737.872    -432.059
  H      946.797     738.581    -432.531
  H      944.993     739.150    -434.151
  H      944.412     740.444    -433.053
  H      945.098     744.096    -424.628
  H      944.802     744.696    -426.274
  P      945.615     735.722    -431.604
  C      948.109     735.056    -431.173
  O      946.735     734.744    -430.983
  O      946.223     736.071    -433.045
  O      944.242     735.121    -431.755
  H      945.682     735.672    -433.730
  H      948.713     734.310    -430.700
  H      948.321     736.012    -430.742
  H      948.328     735.081    -432.220

 6  7  8  9  10  11  12  13  14  15  25  28  32  33  34  35 0
 6-311+G(2d,p)
 ****
 36  37  40 0
 6-311+G(2d,p)
 ****
 1  2  3  4  5  16  17  18  19  20  21  22  23  24 0
 3-21G
 ****
 26  27  29  30  31  38  39 41  42  43  44  45  46  47  48 0
 3-21G
 ****


