%nproc=1
%NoSave
%Mem=1900MB
#P OB98/GEN NMR

erre ene a

0 1
  C     -413.153    -568.219     339.986
  O     -413.796    -568.897     341.046
  P     -412.932    -569.406     342.297
  C     -414.461    -571.513     342.177
  O     -413.772    -570.591     342.993
  C     -415.589    -572.219     342.953
  O     -414.979    -572.997     344.010
  C     -416.568    -571.275     343.646
  O     -417.761    -571.997     343.960
  C     -415.830    -570.930     344.928
  O     -416.696    -570.444     345.938
  C     -415.105    -572.266     345.258
  N     -413.780    -572.034     345.845
  C     -413.733    -571.247     347.002
  O     -414.743    -570.831     347.570
  N     -412.478    -570.900     347.430
  C     -411.306    -571.202     346.802
  O     -410.242    -570.628     347.017
  C     -411.405    -572.223     345.735
  C     -412.615    -572.561     345.289
  O     -413.070    -568.195     343.333
  O     -411.517    -569.733     342.001
  H     -416.192    -570.497     346.795
  H     -412.293    -567.612     343.273
  H     -412.452    -570.217     348.190
  H     -410.487    -572.597     345.310
  H     -412.716    -573.268     344.474
  H     -415.684    -572.877     345.961
  H     -415.094    -570.156     344.719
  H     -416.815    -570.381     343.065
  H     -416.117    -572.904     342.288
  H     -413.750    -572.249     341.774
  H     -414.892    -571.003     341.303
  P     -419.173    -571.402     343.489
  C     -419.777    -570.524     345.812
  O     -420.120    -571.411     344.774
  O     -419.743    -571.997     342.241
  O     -418.839    -569.844     343.294
  H     -419.519    -569.422     342.743
  H     -420.686    -570.229     346.349
  H     -419.280    -569.616     345.437
  H     -419.106    -571.031     346.524
  H     -413.875    -567.954     339.242
  H     -412.412    -568.857     339.552
  H     -412.685    -567.333     340.361

 3  4  5  6  7  8  9  10  11  12  13  23  28  29  30  31  32 0
 6-311+G(2d,p)
 ****
 33  34 0
 6-311+G(2d,p)
 ****
 1  2  14  15  16  17  18  19  20  21  22  24  25  26  27 0
 3-21G
 ****
 35  36  37  38  39  40  41  42  43  44  45 0
 3-21G
 ****


