%nproc=1
%NoSave
%Mem=1900MB
#P OB98/GEN NMR

erre ene a

0 1
  C      -24.399     223.978    -199.661
  O      -24.567     224.051    -201.064
  P      -23.339     224.480    -202.002
  C      -24.805     226.343    -202.995
  O      -23.543     226.011    -202.425
  C      -25.188     227.780    -202.645
  O      -25.469     227.910    -201.235
  C      -24.093     228.798    -202.925
  O      -23.935     229.042    -204.310
  C      -24.589     229.988    -202.115
  O      -25.602     230.709    -202.830
  C      -25.197     229.288    -200.878
  N      -24.335     229.377    -199.709
  C      -24.705     230.320    -198.742
  O      -25.660     231.071    -198.936
  N      -23.973     230.387    -197.582
  C      -22.901     229.670    -197.453
  N      -22.252     229.735    -196.259
  C      -22.387     228.786    -198.521
  C      -23.159     228.673    -199.600
  O      -23.049     223.550    -203.131
  O      -22.093     224.555    -200.997
  H      -21.352     224.044    -201.376
  H      -25.930     231.401    -202.219
  H      -21.451     228.262    -198.389
  H      -22.875     228.026    -200.426
  H      -26.171     229.730    -200.636
  H      -23.787     230.697    -201.883
  H      -23.144     228.442    -202.507
  H      -26.100     228.033    -203.202
  H      -22.642     230.339    -195.547
  H      -25.558     225.655    -202.599
  H      -21.622     229.001    -195.942
  H      -24.757     226.210    -204.078
  P      -22.583     228.510    -204.993
  C      -21.418     230.698    -204.249
  O      -21.363     229.288    -204.307
  O      -22.648     229.127    -206.469
  O      -22.448     227.024    -205.030
  H      -22.270     228.491    -207.107
  H      -20.725     231.046    -203.474
  H      -22.423     231.054    -204.007
  H      -21.104     231.117    -205.213
  H      -25.320     223.678    -199.207
  H      -24.113     224.938    -199.286
  H      -23.637     223.263    -199.430

 3  4  5  6  7  8  9  10  11  12  13  24  27  28  29  30  32 0
 6-311+G(2d,p)
 ****
 34  35 0
 6-311+G(2d,p)
 ****
 1  2  14  15  16  17  18  19  20  21  22  23  25  26 0
 3-21G
 ****
 31  33  36  37  38  39  40  41  42  43  44  45  46 0
 3-21G
 ****


