%nproc=1
%NoSave
%Mem=1900MB
#P OB98/GEN NMR

erre ene a

0 1
  C     -514.851     322.744     465.226
  O     -514.142     323.309     466.308
  P     -514.219     322.634     467.762
  C     -512.982     320.587     466.807
  O     -514.087     321.039     467.582
  C     -512.242     319.467     467.536
  O     -511.868     319.887     468.873
  C     -513.068     318.205     467.740
  O     -513.237     317.478     466.534
  C     -512.260     317.492     468.814
  O     -511.137     316.808     468.235
  C     -511.777     318.679     469.677
  N     -512.531     318.808     470.915
  C     -511.885     318.352     472.074
  O     -510.786     317.810     472.005
  N     -512.519     318.532     473.279
  C     -513.731     318.991     473.316
  N     -514.282     319.200     474.538
  C     -514.507     319.331     472.099
  C     -513.843     319.232     470.951
  O     -515.362     323.073     468.609
  O     -512.825     323.024     468.449
  H     -513.003     323.399     469.331
  H     -510.736     316.276     468.946
  H     -515.534     319.644     472.183
  H     -514.314     319.480     470.002
  H     -510.712     318.568     469.921
  H     -512.848     316.748     469.353
  H     -514.057     318.471     468.141
  H     -511.330     319.236     466.974
  H     -513.716     318.971     475.348
  H     -512.300     321.428     466.645
  H     -515.058     319.842     474.695
  H     -513.338     320.234     465.835
  P     -514.451     316.437     466.467
  C     -515.986     317.734     464.841
  O     -515.785     317.271     466.163
  O     -514.630     315.985     468.002
  O     -514.220     315.259     465.582
  H     -514.876     315.043     468.036
  H     -517.053     317.965     464.713
  H     -515.693     316.991     464.101
  H     -515.414     318.660     464.684
  H     -514.680     323.326     464.345
  H     -515.897     322.736     465.451
  H     -514.513     321.742     465.063

 3  4  5  6  7  8  9  10  11  12  13  24  27  28  29  30  32 0
 6-311+G(2d,p)
 ****
 34  35 0
 6-311+G(2d,p)
 ****
 1  2  14  15  16  17  18  19  20  21  22  23  25  26 0
 3-21G
 ****
 31  33  36  37  38  39  40  41  42  43  44  45  46 0
 3-21G
 ****


