%nproc=1
%NoSave
%Mem=1900MB
#P OB98/GEN NMR

erre ene a

0 1
  C      307.798    -372.001       8.896
  O      306.616    -372.670       8.503
  H      308.263    -371.565       8.007
  H      308.501    -372.702       9.350
  H      307.568    -371.193       9.598
  P      305.740    -373.404       9.631
  C      303.437    -373.767       8.502
  O      304.711    -374.317       8.797
  C      302.898    -374.356       7.202
  O      303.315    -373.583       6.057
  C      303.369    -375.775       6.895
  O      302.760    -376.771       7.702
  C      302.957    -375.882       5.436
  O      301.534    -376.078       5.350
  C      303.366    -374.485       4.915
  N      304.696    -374.472       4.306
  C      304.842    -375.179       3.105
  O      303.892    -375.784       2.611
  N      306.082    -375.221       2.508
  C      307.091    -374.629       3.074
  N      308.299    -374.709       2.441
  C      306.981    -373.887       4.348
  C      305.774    -373.849       4.899
  O      305.120    -372.512      10.660
  O      306.724    -374.504      10.250
  H      301.338    -376.921       5.790
  H      306.233    -374.980      10.963
  H      307.860    -373.439       4.789
  H      305.613    -373.333       5.844
  H      302.636    -374.114       4.180
  H      303.438    -376.709       4.913
  H      304.464    -375.844       6.952
  H      301.801    -374.301       7.244
  H      308.340    -375.219       1.572
  H      303.541    -372.681       8.426
  H      309.150    -374.339       2.848
  H      302.730    -374.006       9.307
  P      303.517    -378.187       7.812
  C      302.494    -379.136      10.028
  O      302.525    -379.166       8.604
  O      304.691    -377.888       8.857
  O      304.024    -378.734       6.514
  H      305.535    -377.718       8.391
  H      301.781    -379.849      10.384
  H      302.215    -378.157      10.358
  H      303.463    -379.379      10.411

 6  7  8  9  10  11  12  13  14  15  16  26  30  31  32  33  35 0
 6-311+G(2d,p)
 ****
 37  38 0
 6-311+G(2d,p)
 ****
 1  2  3  4  5  17  18  19  20  21  22  23  24  25 0
 3-21G
 ****
 27  28  29  34  36  39  40  41  42  43  44  45  46 0
 3-21G
 ****


