%nproc=1
%NoSave
%Mem=1900MB
#P OB98/GEN NMR

erre ene a

0 1
  C     -199.758    -470.469    -649.446
  O     -198.415    -470.625    -649.016
  H     -199.757    -470.154    -650.493
  H     -200.270    -469.704    -648.856
  H     -200.294    -471.418    -649.363
  P     -198.149    -470.932    -647.464
  C     -196.799    -469.302    -645.973
  O     -196.784    -470.166    -647.104
  C     -195.417    -469.267    -645.323
  O     -195.128    -470.532    -644.687
  C     -194.288    -469.042    -646.321
  O     -194.235    -467.694    -646.732
  C     -193.098    -469.543    -645.531
  O     -192.644    -468.550    -644.606
  C     -193.707    -470.759    -644.786
  N     -193.423    -472.019    -645.463
  C     -192.225    -472.655    -645.092
  O     -191.483    -472.151    -644.254
  N     -191.899    -473.838    -645.725
  C     -192.701    -474.350    -646.601
  N     -192.314    -475.518    -647.182
  C     -193.977    -473.719    -647.011
  C     -194.267    -472.569    -646.405
  O     -198.179    -472.369    -647.042
  O     -199.265    -470.063    -646.712
  H     -192.351    -467.784    -645.151
  H     -200.081    -470.582    -646.593
  H     -194.613    -474.187    -647.749
  H     -195.185    -472.045    -646.639
  H     -193.317    -470.818    -643.768
  H     -192.262    -469.795    -646.181
  H     -194.414    -469.706    -647.194
  H     -195.419    -468.490    -644.555
  H     -191.432    -475.908    -646.893
  H     -197.535    -469.707    -645.270
  H     -192.888    -476.048    -647.821
  H     -197.106    -468.297    -646.255
  P     -194.982    -467.203    -648.064
  C     -192.997    -465.638    -648.601
  O     -194.402    -465.733    -648.368
  O     -196.471    -467.312    -648.048
  O     -194.291    -468.095    -649.210
  H     -194.616    -469.035    -649.176
  H     -192.735    -464.618    -648.790
  H     -192.735    -466.237    -649.448
  H     -192.468    -465.988    -647.739

 6  7  8  9  10  11  12  13  14  15  16  26  30  31  32  33  35 0
 6-311+G(2d,p)
 ****
 37  38 0
 6-311+G(2d,p)
 ****
 1  2  3  4  5  17  18  19  20  21  22  23  24  25 0
 3-21G
 ****
 27  28  29  34  36  39  40  41  42  43  44  45  46 0
 3-21G
 ****


