%nproc=1
%NoSave
%Mem=1900MB
#P OB98/GEN NMR

erre ene a

0 1
  C     -394.293    -234.595     146.780
  O     -395.290    -234.610     145.771
  P     -395.032    -233.765     144.434
  C     -394.716    -231.211     143.921
  O     -395.053    -232.216     144.852
  C     -393.958    -230.067     144.616
  O     -392.747    -230.602     145.223
  C     -393.542    -228.913     143.694
  O     -393.640    -227.702     144.448
  C     -392.086    -229.244     143.385
  O     -391.347    -228.107     142.965
  C     -391.636    -229.822     144.731
  N     -390.432    -230.654     144.640
  C     -389.245    -230.133     145.139
  O     -389.140    -229.014     145.637
  N     -388.145    -230.945     145.025
  C     -388.106    -232.170     144.407
  O     -387.084    -232.851     144.316
  C     -389.380    -232.641     143.853
  C     -390.467    -231.887     144.000
  O     -396.421    -233.980     143.660
  O     -393.815    -234.194     143.681
  H     -397.185    -234.023     144.254
  H     -390.446    -228.386     142.746
  H     -387.277    -230.614     145.413
  H     -389.390    -233.604     143.343
  H     -391.424    -232.208     143.599
  H     -391.468    -229.012     145.453
  H     -392.042    -229.996     142.587
  H     -394.173    -228.845     142.800
  H     -394.597    -229.690     145.439
  H     -395.621    -230.805     143.472
  H     -394.102    -231.643     143.123
  P     -393.869    -226.324     143.648
  C     -392.338    -224.865     142.094
  O     -392.620    -226.126     142.661
  O     -393.574    -225.263     144.813
  O     -395.228    -226.159     143.045
  H     -392.759    -225.449     145.298
  H     -391.298    -224.857     141.747
  H     -392.476    -224.060     142.817
  H     -392.995    -224.700     141.233
  H     -394.609    -235.201     147.603
  H     -394.140    -233.590     147.115
  H     -393.378    -234.982     146.383

 3  4  5  6  7  8  9  10  11  12  13  24  28  29  30  31  32 0
 6-311+G(2d,p)
 ****
 33  34 0
 6-311+G(2d,p)
 ****
 1  2  14  15  16  17  18  19  20  21  22  23  25  26  27 0
 3-21G
 ****
 35  36  37  38  39  40  41  42  43  44  45 0
 3-21G
 ****


