%nproc=1
%NoSave
%Mem=1900MB
#P OB98/GEN NMR

erre ene a

0 1
  C      308.811     268.567     155.965
  O      308.932     267.154     156.171
  P      310.111     266.383     155.401
  C      311.531     265.618     157.449
  O      310.682     265.238     156.365
  C      311.082     264.919     158.743
  O      309.794     265.430     159.176
  C      310.887     263.428     158.587
  O      312.147     262.761     158.603
  C      309.992     263.083     159.771
  O      310.766     262.759     160.941
  C      309.202     264.401     159.989
  N      307.781     264.249     159.687
  C      306.946     265.301     160.129
  O      307.422     266.254     160.740
  N      305.609     265.209     159.859
  C      305.125     264.161     159.249
  N      303.779     264.132     159.027
  C      305.968     263.027     158.805
  C      307.269     263.140     159.049
  O      311.293     267.461     155.369
  O      309.744     265.932     154.024
  H      310.116     262.571     161.653
  H      311.824     267.361     154.561
  H      305.518     262.183     158.313
  H      307.968     262.355     158.770
  H      309.286     264.739     161.033
  H      309.353     262.224     159.570
  H      310.355     263.210     157.646
  H      311.830     265.138     159.529
  H      303.233     264.925     159.353
  H      311.522     266.694     157.582
  H      303.309     263.372     158.572
  H      312.558     265.347     157.206
  P      312.179     261.217     158.185
  C      313.926     261.709     156.367
  O      313.652     261.001     157.547
  O      311.255     261.223     156.855
  O      311.721     260.224     159.186
  H      311.123     260.294     156.557
  H      315.008     261.636     156.167
  H      313.680     262.768     156.481
  H      313.385     261.277     155.519
  H      307.988     268.942     156.537
  H      308.642     268.763     154.927
  H      309.713     269.051     156.277

 3  4  5  6  7  8  9  10  11  12  13  21  23  27  28  29  30  32 0
 6-311+G(2d,p)
 ****
 34  35 0
 6-311+G(2d,p)
 ****
 1  2  14  15  16  17  18  19  20  22  24  25  26 0
 3-21G
 ****
 31  33  36  37  38  39  40  41  42  43  44  45  46 0
 3-21G
 ****


