%nproc=1
%NoSave
%Mem=1900MB
#P OB98/GEN NMR

erre ene a

0 1
  C      526.262    -318.124    -173.698
  O      527.106    -317.085    -174.150
  H      525.227    -317.771    -173.723
  H      526.514    -318.403    -172.671
  H      526.358    -318.993    -174.355
  P      528.681    -317.388    -174.152
  C      530.360    -318.079    -175.983
  O      529.036    -317.644    -175.698
  C      530.520    -318.366    -177.472
  O      529.682    -319.498    -177.823
  C      530.106    -317.187    -178.362
  O      530.986    -317.110    -179.481
  C      528.718    -317.581    -178.848
  O      528.378    -316.962    -180.084
  C      528.826    -319.103    -178.905
  N      525.077    -321.403    -181.498
  C      526.314    -320.993    -181.860
  N      527.258    -320.404    -181.103
  C      526.839    -320.289    -179.832
  C      525.612    -320.654    -179.310
  C      524.698    -321.236    -180.211
  N      523.428    -321.626    -179.852
  N      525.542    -320.335    -177.966
  C      526.713    -319.801    -177.680
  N      527.522    -319.736    -178.778
  O      529.140    -318.447    -173.207
  O      529.295    -315.929    -173.893
  H      527.504    -317.311    -180.376
  H      528.841    -315.254    -174.428
  H      526.572    -321.159    -182.907
  H      527.013    -319.431    -176.708
  H      529.264    -319.454    -179.850
  H      527.970    -317.274    -178.104
  H      530.095    -316.242    -177.832
  H      531.555    -318.663    -177.671
  H      530.588    -318.989    -175.412
  H      522.840    -322.047    -180.552
  H      523.132    -321.532    -178.885
  H      531.052    -317.290    -175.667
  P      532.225    -316.082    -179.410
  C      533.579    -315.132    -177.425
  O      532.970    -316.289    -178.005
  O      531.913    -314.667    -179.765
  O      533.259    -316.721    -180.442
  H      533.715    -316.006    -180.918
  H      534.040    -315.399    -176.497
  H      532.833    -314.385    -177.251
  H      534.320    -314.746    -178.093

 6  7  8  9  10  11  12  13  14  15  25  28  32  33  34  35 0
 6-311+G(2d,p)
 ****
 36  39  40 0
 6-311+G(2d,p)
 ****
 1  2  3  4  5  16  17  18  19  20  21  22  23  24 0
 3-21G
 ****
 26  27  29  30  31  37  38  41  42  43  44  45  46  47 0
 3-21G
 ****
 48 0
 3-21G
 ****


