%nproc=1
%NoSave
%Mem=1900MB
#P OB98/GEN NMR

erre ene a

0 1
  C      -66.914     -12.228     -11.514
  O      -67.876     -13.159     -11.005
  P      -67.979     -14.661     -11.561
  C      -67.916     -15.765      -9.238
  O      -68.643     -15.631     -10.457
  C      -68.560     -16.758      -8.261
  O      -69.828     -16.248      -7.761
  C      -68.844     -18.152      -8.841
  O      -68.711     -19.067      -7.753
  C      -70.300     -18.030      -9.261
  O      -70.943     -19.288      -9.444
  C      -70.855     -17.197      -8.116
  N      -75.909     -17.738      -8.774
  C      -74.984     -18.556      -8.235
  N      -73.664     -18.331      -8.060
  C      -73.328     -17.094      -8.463
  C      -74.169     -16.139      -9.018
  C      -75.517     -16.506      -9.183
  N      -76.458     -15.691      -9.773
  N      -73.462     -14.994      -9.344
  C      -72.219     -15.256      -8.994
  N      -72.087     -16.515      -8.452
  O      -66.700     -15.189     -12.141
  O      -69.103     -14.585     -12.707
  H      -70.606     -19.680     -10.271
  H      -68.788     -15.066     -13.497
  H      -75.348     -19.529      -7.910
  H      -71.371     -14.595      -9.129
  H      -71.049     -17.824      -7.231
  H      -70.354     -17.489     -10.217
  H      -68.178     -18.421      -9.667
  H      -67.893     -16.837      -7.390
  H      -67.847     -14.779      -8.764
  H      -77.386     -16.082      -9.928
  H      -76.162     -14.825     -10.201
  H      -66.892     -16.090      -9.472
  P      -68.393     -20.628      -7.993
  C      -66.451     -20.485      -6.328
  O      -67.655     -21.153      -6.672
  O      -67.680     -20.933      -9.274
  O      -69.821     -21.345      -7.928
  H      -69.767     -22.219      -8.358
  H      -65.645     -20.819      -6.982
  H      -66.198     -20.725      -5.293
  H      -66.562     -19.396      -6.416
  H      -67.020     -11.292     -11.006
  H      -67.076     -12.085     -12.562
  H      -65.928     -12.611     -11.354

 3  4  5  6  7  8  9  10  11  12  22  25  29  30  31  32 0
 6-311+G(2d,p)
 ****
 33  36  37 0
 6-311+G(2d,p)
 ****
 1  2  13  14  15  16  17  18  19  20  21  23  24  26 0
 3-21G
 ****
 27  28  34  35  38  39  40  41  42  43  44  45  46  47  48 0
 3-21G
 ****


