%nproc=1
%NoSave
%Mem=1900MB
#P OB98/GEN NMR

erre ene a

0 1
  C      149.716     104.802     283.489
  O      148.836     105.899     283.378
  H      149.154     103.937     283.848
  H      150.504     105.034     284.212
  H      150.164     104.552     282.525
  P      149.305     107.181     282.544
  C      150.484     109.418     283.062
  O      150.059     108.161     283.567
  C      151.618     110.000     283.913
  O      151.115     110.335     285.229
  C      152.724     108.960     284.112
  O      154.003     109.563     284.290
  C      152.313     108.274     285.405
  O      153.397     107.622     286.060
  C      151.725     109.450     286.184
  N      150.906     107.633     290.874
  C      152.096     107.771     290.185
  N      153.210     107.349     290.822
  N      152.180     108.262     288.977
  C      150.978     108.574     288.436
  C      149.733     108.459     289.009
  C      149.656     107.951     290.360
  O      148.628     107.790     291.014
  N      148.744     108.857     288.143
  C      149.387     109.204     287.047
  N      150.748     109.063     287.181
  O      147.938     107.968     282.257
  O      150.048     106.895     281.275
  H      154.006     107.301     285.370
  H      148.027     108.524     281.462
  H      150.900     107.264     291.808
  H      148.922     109.566     286.139
  H      152.519     110.007     286.701
  H      151.570     107.508     285.166
  H      153.173     106.807     291.672
  H      152.778     108.254     283.283
  H      154.030     107.169     290.236
  H      151.988     110.930     283.467
  H      149.618     110.086     283.088
  H      150.795     109.321     282.019
  P      155.008     109.554     283.041
  C      156.922     107.955     282.227
  O      155.790     108.155     283.053
  O      156.118     110.631     283.445
  O      154.351     109.882     281.743
  H      155.994     111.450     282.934
  H      157.302     106.966     282.376
  H      157.678     108.669     282.479
  H      156.642     108.079     281.202

 6  7  8  9  10  11  12  13  14  15  26  29  33  34 0
 6-311+G(2d,p)
 ****
 36  38  39  40  41 0
 6-311+G(2d,p)
 ****
 1  2  3  4  5  16  17  18  19  20  21  22  23  24  25 0
 3-21G
 ****
 27  28  30  31  32  35  37  42  43  44  45  46  47 0
 3-21G
 ****
 48  49 0
 3-21G
 ****


