%nproc=1
%NoSave
%Mem=1900MB
#P OB98/GEN NMR

erre ene a

0 1
  C     -472.142     523.204    -298.307
  O     -472.113     523.445    -299.694
  P     -470.730     523.510    -300.484
  C     -472.341     522.954    -302.409
  O     -471.103     523.553    -302.047
  C     -472.878     523.583    -303.704
  O     -471.838     523.628    -304.723
  C     -474.008     522.806    -304.348
  O     -475.238     522.740    -303.641
  C     -474.036     523.426    -305.737
  O     -474.753     524.661    -305.739
  C     -472.523     523.666    -306.000
  N     -471.973     522.688    -306.936
  C     -472.546     522.673    -308.206
  O     -473.457     523.419    -308.554
  N     -472.053     521.741    -309.070
  C     -471.098     520.797    -308.785
  O     -470.736     519.959    -309.603
  C     -470.539     520.851    -307.427
  C     -470.991     521.775    -306.569
  O     -469.724     522.458    -300.116
  O     -470.219     525.009    -300.222
  H     -475.622     524.501    -305.310
  H     -470.828     525.698    -300.536
  H     -472.465     521.703    -309.985
  H     -469.771     520.129    -307.171
  H     -470.599     521.840    -305.568
  H     -472.363     524.673    -306.412
  H     -474.531     522.769    -306.462
  H     -473.689     521.765    -304.472
  H     -473.161     524.616    -303.485
  H     -473.062     523.128    -301.606
  H     -472.205     521.871    -302.516
  P     -476.001     521.366    -303.338
  C     -477.443     522.859    -301.787
  O     -477.390     521.719    -302.622
  O     -475.180     520.254    -302.769
  O     -476.491     520.938    -304.814
  H     -476.529     519.966    -304.868
  H     -478.440     522.913    -301.342
  H     -477.264     523.774    -302.386
  H     -476.705     522.796    -300.980
  H     -473.157     523.198    -297.967
  H     -471.600     523.975    -297.800
  H     -471.691     522.256    -298.100

 3  4  5  6  7  8  9  10  11  12  13  23  28  29  30  31  32 0
 6-311+G(2d,p)
 ****
 33  34 0
 6-311+G(2d,p)
 ****
 1  2  14  15  16  17  18  19  20  21  22  24  25  26  27 0
 3-21G
 ****
 35  36  37  38  39  40  41  42  43  44  45 0
 3-21G
 ****


