%nproc=1
%NoSave
%Mem=1900MB
#P OB98/GEN NMR

erre ene a

0 1
  C      210.373    -275.836    -720.966
  O      211.607    -275.300    -721.428
  P      211.625    -274.650    -722.898
  C      211.228    -272.335    -721.790
  O      212.020    -273.108    -722.683
  C      211.950    -271.048    -721.410
  O      213.051    -271.351    -720.537
  C      212.552    -270.293    -722.583
  O      211.584    -269.503    -723.265
  C      213.568    -269.404    -721.872
  O      212.909    -268.249    -721.330
  C      214.059    -270.321    -720.734
  N      219.072    -270.109    -720.046
  C      218.082    -269.268    -719.588
  N      218.479    -268.234    -718.813
  N      216.814    -269.424    -719.864
  C      216.558    -270.517    -720.619
  C      217.456    -271.428    -721.136
  C      218.863    -271.217    -720.866
  O      219.792    -271.887    -721.301
  N      216.811    -272.417    -721.836
  C      215.532    -272.130    -721.716
  N      215.327    -270.966    -721.006
  O      210.071    -274.577    -723.279
  O      212.413    -275.399    -723.916
  H      213.592    -267.732    -720.855
  H      209.966    -274.582    -724.250
  H      220.032    -269.959    -719.792
  H      214.730    -272.728    -722.121
  H      214.146    -269.772    -719.790
  H      214.361    -269.044    -722.534
  H      219.417    -268.145    -718.458
  H      213.073    -270.972    -723.267
  H      217.758    -267.631    -718.435
  H      211.249    -270.412    -720.859
  H      211.036    -272.918    -720.884
  H      210.268    -272.112    -722.272
  P      211.845    -269.230    -724.826
  C      209.814    -270.462    -725.872
  O      210.394    -269.232    -725.501
  O      212.507    -270.600    -725.333
  O      212.712    -268.053    -725.105
  H      213.068    -270.436    -726.109
  H      210.056    -271.254    -725.158
  H      210.166    -270.749    -726.870
  H      208.726    -270.345    -725.901
  H      210.503    -276.233    -719.981
  H      210.054    -276.616    -721.626
  H      209.634    -275.062    -720.944

 3  4  5  6  7  8  9  10  11  12  23  26  30  31  33  0
 6-311+G(2d,p)
 ****
 35  36  37  38 0
 6-311+G(2d,p)
 ****
 1  2  13  14  15  16  17  18  19  20  21  22  24  25  27  28  29 0
 3-21G
 ****
 32  34  39  40  41  42  43  44  45  46  47  48  49 0
 3-21G
 ****


