%nproc=1
%NoSave
%Mem=1900MB
#P OB98/GEN NMR

erre ene a

0 1
  C      387.691    -893.900    -746.779
  O      386.732    -893.420    -747.736
  P      387.125    -893.380    -749.296
  C      384.974    -894.740    -749.870
  O      386.371    -894.580    -750.041
  C      384.357    -895.460    -751.085
  O      384.560    -894.670    -752.278
  C      384.984    -896.810    -751.392
  O      384.512    -897.820    -750.506
  C      384.544    -897.030    -752.831
  O      383.191    -897.540    -752.899
  C      384.599    -895.580    -753.403
  N      385.769    -895.360    -754.249
  C      385.603    -895.580    -755.604
  O      384.549    -895.990    -756.099
  N      386.708    -895.330    -756.391
  C      387.941    -894.970    -755.950
  O      388.888    -894.790    -756.692
  C      388.087    -894.840    -754.480
  C      387.017    -895.040    -753.719
  O      388.644    -893.910    -749.260
  O      387.043    -892.040    -749.943
  H      383.255    -898.510    -752.920
  H      389.124    -893.540    -750.028
  H      386.591    -895.460    -757.385
  H      389.048    -894.580    -754.085
  H      387.101    -894.960    -752.633
  H      383.698    -895.370    -753.995
  H      385.186    -897.730    -753.360
  H      386.065    -896.740    -751.344
  H      383.279    -895.540    -750.916
  H      384.497    -893.750    -749.753
  H      384.780    -895.320    -748.954
  P      385.595    -898.510    -749.560
  C      384.274    -897.450    -747.572
  O      385.525    -897.740    -748.166
  O      386.963    -898.010    -750.252
  O      385.442    -900.000    -749.509
  H      386.878    -897.120    -750.628
  H      383.555    -898.230    -747.772
  H      383.909    -896.490    -747.957
  H      384.426    -897.370    -746.494
  H      387.267    -893.858    -745.797
  H      388.568    -893.288    -746.815
  H      387.952    -894.911    -747.012

 3  4  5  6  7  8  9  10  11  12  13  23  28  29  30  31  32 0
 6-311+G(2d,p)
 ****
 33  34 0
 6-311+G(2d,p)
 ****
 1  2  14  15  16  17  18  19  20  21  22  24  25  26 0
 3-21G
 ****
 27  35  36  37  38  39  40  41  42  43  44  45 0
 3-21G
 ****


