%nproc=1
%NoSave
%Mem=1900MB
#P OB98/GEN NMR

erre ene a

0 1
  C      770.613     111.993     144.150
  O      771.385     113.153     144.377
  P      772.753     113.293     143.539
  C      774.448     115.235     143.107
  O      773.254     114.804     143.742
  C      774.396     116.751     142.888
  O      773.428     117.076     141.861
  C      773.989     117.550     144.125
  O      775.103     117.741     144.983
  C      773.468     118.838     143.500
  O      774.553     119.719     143.162
  C      772.767     118.317     142.232
  N      768.142     120.150     141.311
  C      769.378     120.744     141.145
  N      769.392     121.989     140.616
  N      770.514     120.169     141.470
  C      770.346     118.928     141.995
  C      769.170     118.247     142.222
  C      767.939     118.870     141.812
  O      766.824     118.357     141.846
  N      769.403     117.020     142.797
  C      770.718     116.956     142.894
  N      771.341     118.076     142.403
  O      772.251     113.245     142.021
  O      773.789     112.256     143.844
  H      775.047     119.946     143.975
  H      772.367     112.354     141.644
  H      767.307     120.642     141.020
  H      771.268     116.112     143.287
  H      772.875     119.008     141.391
  H      772.816     119.391     144.177
  H      768.563     122.503     140.360
  H      773.173     117.038     144.653
  H      770.292     122.436     140.493
  H      775.379     117.070     142.533
  H      774.541     114.733     142.135
  H      775.309     114.962     143.734
  P      774.823     118.418     146.416
  C      776.242     118.721     148.571
  O      776.029     117.978     147.389
  O      773.567     117.600     146.973
  O      774.553     119.880     146.358
  H      772.986     118.206     147.476
  H      776.666     118.056     149.327
  H      775.311     119.152     148.955
  H      776.954     119.526     148.365
  H      769.737     112.022     144.764
  H      771.191     111.126     144.394
  H      770.326     111.951     143.120

 3  4  5  6  7  8  9  10  11  12  23  26  30  31 0
 6-311+G(2d,p)
 ****
 33  35  36  37  38 0
 6-311+G(2d,p)
 ****
 1  2  13  14  15  16  17  18  19  20  21  22  24  25 0
 3-21G
 ****
 27  28  29  32  34  39  40  41  42  43  44  45  46  47  48  49 0
 3-21G
 ****


