%nproc=1
%NoSave
%Mem=1900MB
#P OB98/GEN NMR

erre ene a

0 1
  C      317.403     548.894     175.762
  O      316.185     548.429     176.356
  P      315.034     549.508     176.637
  C      312.477     548.964     176.914
  O      313.821     548.685     177.294
  C      311.553     547.876     177.442
  O      311.572     546.713     176.572
  C      311.923     547.350     178.827
  O      311.583     548.286     179.844
  C      311.139     546.048     178.863
  O      309.761     546.299     179.197
  C      311.248     545.564     177.395
  N      312.213     544.490     177.219
  C      312.310     543.573     178.263
  O      311.635     543.660     179.293
  N      313.205     542.553     178.085
  C      314.035     542.387     177.013
  O      314.814     541.453     176.912
  C      313.931     543.415     175.969
  C      313.038     544.408     176.112
  O      314.532     549.824     175.142
  O      315.518     550.686     177.406
  H      314.564     549.047     174.562
  H      309.411     546.878     178.491
  H      313.276     541.869     178.826
  H      314.587     543.335     175.105
  H      312.953     545.178     175.352
  H      310.270     545.205     177.040
  H      311.531     545.343     179.609
  H      312.998     547.137     178.868
  H      310.523     548.273     177.458
  H      312.407     549.002     175.822
  H      312.195     549.946     177.294
  P      312.792     549.123     180.503
  C      312.839     551.133     182.174
  O      312.159     549.998     181.686
  O      313.102     550.181     179.338
  O      313.964     548.267     180.878
  H      312.289     550.575     178.964
  H      312.123     551.772     182.693
  H      313.296     551.702     181.357
  H      313.618     550.818     182.877
  H      318.074     548.071     175.634
  H      317.854     549.626     176.399
  H      317.191     549.333     174.809

 3  4  5  6  7  8  9  10  11  12  13  24  28  29  30  31  32 0
 6-311+G(2d,p)
 ****
 33  34 0
 6-311+G(2d,p)
 ****
 1  2  14  15  16  17  18  19  20  21  22  23  25  26  27 0
 3-21G
 ****
 35  36  37  38  39  40  41  42  43  44  45 0
 3-21G
 ****


