%nproc=1
%NoSave
%Mem=1900MB
#P OB98/GEN NMR

erre ene a

0 1
  C      103.632       5.165     -13.698
  O      104.473       5.787     -14.651
  P      103.920       6.179     -16.099
  C      105.202       4.409     -17.434
  O      103.922       4.845     -16.994
  C      105.101       3.117     -18.242
  O      104.584       2.061     -17.386
  C      104.183       3.199     -19.471
  O      104.755       2.349     -20.470
  C      102.888       2.587     -18.963
  O      102.047       2.123     -20.011
  C      103.442       1.491     -18.059
  N       99.686      -1.849     -17.129
  C      100.424      -1.611     -18.234
  N      101.388      -0.685     -18.411
  C      101.565       0.036     -17.293
  C      100.868      -0.070     -16.101
  C       99.895      -1.082     -16.032
  N       99.158      -1.361     -14.902
  N      101.300       0.890     -15.204
  C      102.237       1.557     -15.844
  N      102.475       1.035     -17.085
  O      104.579       7.356     -16.736
  O      102.362       6.449     -15.857
  H      101.323       1.600     -19.617
  H      102.183       7.410     -15.892
  H      100.216      -2.251     -19.087
  H      102.769       2.417     -15.463
  H      103.785       0.620     -18.629
  H      102.330       3.334     -18.387
  H      104.046       4.213     -19.856
  H      106.114       2.821     -18.542
  H      105.821       4.233     -16.549
  H       98.586      -2.190     -14.921
  H       99.473      -0.992     -14.007
  H      105.675       5.193     -18.035
  P      104.702       2.782     -22.012
  C      103.363       0.700     -22.659
  O      103.384       2.115     -22.627
  O      105.958       2.552     -22.785
  O      104.323       4.340     -21.949
  H      104.537       4.762     -22.803
  H      103.935       0.347     -23.520
  H      102.328       0.362     -22.756
  H      103.790       0.279     -21.744
  H      104.184       4.985     -12.799
  H      103.275       4.236     -14.090
  H      102.801       5.804     -13.484

 3  4  5  6  7  8  9  10  11  12  22  25  29  30  31  32 0
 6-311+G(2d,p)
 ****
 33  36  37 0
 6-311+G(2d,p)
 ****
 1  2  13  14  15  16  17  18  19  20  21  23  24  26 0
 3-21G
 ****
 27  28  34  35  38  39  40  41  42  43  44  45  46  47  48 0
 3-21G
 ****


