%nproc=1
%NoSave
%Mem=1900MB
#P OB98/GEN NMR

erre ene a

0 1
  C      131.534     180.391      73.592
  O      130.511     180.323      72.612
  P      129.101     181.005      72.961
  C      129.587     182.745      71.096
  O      129.168     182.520      72.434
  C      129.017     184.060      70.561
  O      129.634     184.351      69.275
  C      127.495     184.058      70.349
  O      127.035     185.380      70.650
  C      127.381     183.761      68.864
  O      126.115     184.072      68.308
  C      128.559     184.572      68.334
  N      130.753     186.138      63.991
  C      130.564     186.756      65.178
  N      129.978     186.272      66.293
  C      129.574     185.005      66.104
  C      129.681     184.252      64.947
  C      130.305     184.869      63.850
  N      130.488     184.237      62.636
  N      129.126     183.001      65.121
  C      128.690     182.998      66.363
  N      128.955     184.179      67.001
  O      129.161     181.167      74.551
  O      127.898     180.228      72.522
  H      126.120     183.892      67.347
  H      128.293     180.985      74.957
  H      130.932     187.777      65.241
  H      128.167     182.181      66.841
  H      128.344     185.646      68.318
  H      127.546     182.689      68.703
  H      126.969     183.342      70.988
  H      129.302     184.866      71.248
  H      129.224     181.931      70.460
  H      130.761     184.826      61.863
  H      129.972     183.381      62.481
  H      130.680     182.744      71.052
  P      125.539     185.574      71.200
  C      126.655     185.709      73.510
  O      125.630     185.116      72.737
  O      124.804     184.316      70.532
  O      124.904     186.890      70.913
  H      125.291     183.489      70.695
  H      126.540     185.386      74.548
  H      126.579     186.800      73.468
  H      127.634     185.386      73.145
  H      132.411     179.899      73.227
  H      131.202     179.909      74.488
  H      131.761     181.416      73.801

 3  4  5  6  7  8  9  10  11  12  22  25  29  30  31  32 0
 6-311+G(2d,p)
 ****
 33  36  37 0
 6-311+G(2d,p)
 ****
 1  2  13  14  15  16  17  18  19  20  21  23  24  26 0
 3-21G
 ****
 27  28  34  35  38  39  40  41  42  43  44  45  46  47  48 0
 3-21G
 ****


