%nproc=1
%NoSave
%Mem=1900MB
#P OB98/GEN NMR

erre ene a

0 1
  C       40.582     210.635     250.642
  O       39.710     210.570     249.523
  P       38.127     210.803     249.689
  C       37.756     212.294     247.611
  O       37.854     212.240     249.029
  C       38.388     213.589     247.097
  O       39.800     213.594     247.406
  C       38.293     213.786     245.591
  O       36.987     214.193     245.209
  C       39.397     214.814     245.363
  O       38.930     216.127     245.704
  C       40.471     214.354     246.376
  N       41.538     213.577     245.755
  C       42.165     214.150     244.645
  O       41.824     215.261     244.226
  N       43.193     213.465     244.042
  C       43.548     212.299     244.497
  N       44.620     211.699     243.903
  C       42.879     211.637     245.627
  C       41.898     212.327     246.208
  O       37.617     210.652     251.082
  O       37.463     209.803     248.639
  H       39.657     216.747     245.492
  H       37.288     208.901     249.009
  H       43.203     210.659     245.964
  H       41.367     211.915     247.060
  H       40.911     215.228     246.876
  H       39.758     214.844     244.327
  H       38.544     212.851     245.068
  H       37.919     214.433     247.623
  H       45.156     212.266     243.254
  H       36.697     212.277     247.332
  H       45.130     210.957     244.366
  H       38.253     211.417     247.180
  P       36.459     213.732     243.763
  C       34.514     212.364     244.796
  O       35.681     212.349     244.001
  O       37.803     213.314     242.998
  O       35.691     214.781     243.026
  H       38.081     214.027     242.391
  H       33.986     211.416     244.666
  H       33.849     213.182     244.499
  H       34.783     212.471     245.856
  H       41.587     210.453     250.322
  H       40.297     209.895     251.360
  H       40.520     211.606     251.087

 3  4  5  6  7  8  9  10  11  12  13  23  27  28  29  30  32 0
 6-311+G(2d,p)
 ****
 34  35 0
 6-311+G(2d,p)
 ****
 1  2  14  15  16  17  18  19  20  21  22  24  25  26 0
 3-21G
 ****
 31  33  36  37  38  39  40  41  42  43  44  45  46 0
 3-21G
 ****


