%nproc=1
%NoSave
%Mem=1900MB
#P OB98/GEN NMR

erre ene a

0 1
  C     -104.123    -397.771    -219.667
  O     -104.286    -398.711    -218.625
  P     -105.257    -398.421    -217.382
  C     -105.631    -396.474    -215.760
  O     -104.697    -397.135    -216.608
  C     -105.097    -395.119    -215.292
  O     -105.083    -394.194    -216.416
  C     -105.912    -394.475    -214.161
  O     -104.986    -393.834    -213.284
  C     -106.755    -393.446    -214.895
  O     -107.211    -392.412    -214.031
  C     -105.779    -393.006    -215.992
  N     -106.457    -392.361    -217.110
  C     -106.374    -390.967    -217.177
  O     -105.860    -390.332    -216.253
  N     -106.882    -390.335    -218.287
  C     -107.580    -391.011    -219.146
  N     -108.008    -390.360    -220.263
  C     -107.897    -392.447    -218.971
  C     -107.280    -393.060    -217.965
  O     -105.538    -399.599    -216.510
  O     -106.604    -397.875    -218.065
  H     -107.359    -398.400    -217.734
  H     -107.773    -392.808    -213.338
  H     -108.587    -392.936    -219.639
  H     -107.427    -394.115    -217.769
  H     -105.032    -392.312    -215.586
  H     -107.634    -393.938    -215.337
  H     -106.503    -395.205    -213.598
  H     -104.051    -395.254    -214.975
  H     -107.735    -389.392    -220.368
  H     -105.800    -397.107    -214.887
  H     -108.268    -390.861    -221.111
  H     -106.586    -396.351    -216.280
  P     -105.054    -394.187    -211.714
  C     -106.664    -393.387    -209.842
  O     -106.515    -393.803    -211.184
  O     -104.149    -393.011    -211.082
  O     -104.505    -395.518    -211.305
  H     -103.785    -393.315    -210.225
  H     -107.726    -393.239    -209.638
  H     -106.135    -392.440    -209.673
  H     -106.280    -394.149    -209.156
  H     -103.437    -398.157    -220.392
  H     -103.740    -396.856    -219.265
  H     -105.069    -397.587    -220.133

 3  4  5  6  7  8  9  10  11  12  13  24  27  28  29  30  32 0
 6-311+G(2d,p)
 ****
 34  35 0
 6-311+G(2d,p)
 ****
 1  2  14  15  16  17  18  19  20  21  22  23  25  26 0
 3-21G
 ****
 31  33  36  37  38  39  40  41  42  43  44  45  46 0
 3-21G
 ****


