%nproc=1
%NoSave
%Mem=1900MB
#P OB98/GEN NMR

erre ene a

0 1
  C     -891.030     -37.735    -362.713
  O     -892.210     -37.066    -362.320
  H     -890.780     -37.450    -363.739
  H     -891.160     -38.818    -362.680
  H     -890.200     -37.448    -362.062
  P     -892.860     -37.445    -360.898
  C     -893.410     -39.773    -361.893
  O     -893.890     -38.633    -361.196
  C     -894.430     -40.904    -361.790
  O     -894.670     -41.246    -360.414
  C     -895.780     -40.545    -362.368
  O     -895.760     -40.566    -363.778
  C     -896.680     -41.587    -361.709
  O     -896.580     -42.849    -362.380
  C     -896.060     -41.662    -360.304
  N     -896.770     -40.862    -359.311
  C     -898.070     -41.292    -359.003
  O     -898.540     -42.288    -359.532
  N     -898.800     -40.541    -358.096
  C     -898.290     -39.486    -357.549
  N     -899.060     -38.802    -356.676
  C     -896.910     -39.007    -357.845
  C     -896.220     -39.739    -358.730
  O     -893.410     -36.312    -360.082
  O     -891.660     -38.202    -360.132
  H     -896.890     -42.698    -363.296
  H     -891.120     -37.559    -359.626
  H     -896.520     -38.137    -357.362
  H     -895.220     -39.459    -359.005
  H     -896.030     -42.711    -359.950
  H     -897.720     -41.286    -361.714
  H     -896.110     -39.557    -362.008
  H     -894.020     -41.787    -362.291
  H     -900.000     -39.148    -356.503
  H     -892.470     -40.067    -361.418
  H     -898.730     -38.015    -356.124
  H     -893.210     -39.530    -362.937
  P     -896.280     -39.308    -364.634
  C     -898.720     -39.991    -364.110
  O     -897.760     -39.701    -365.124
  O     -895.360     -38.835    -365.704
  O     -896.580     -38.215    -363.498
  H     -895.730     -37.835    -363.151
  H     -899.657     -40.236    -364.565
  H     -898.843     -39.135    -363.480
  H     -898.381     -40.820    -363.524

 6  7  8  9  10  11  12  13  14  15  16  26  30  31  32  33  35 0
 6-311+G(2d,p)
 ****
 37  38 0
 6-311+G(2d,p)
 ****
 1  2  3  4  5  17  18  19  20  21  22  23  24  25 0
 3-21G
 ****
 27  28  29  34  36  39  40  41  42  43  44  45  46 0
 3-21G
 ****


