%nproc=1
%NoSave
%Mem=1900MB
#P OB98/GEN NMR

erre ene a

0 1
  C      689.286     565.749     279.354
  O      688.520     566.503     278.444
  P      686.927     566.409     278.403
  C      685.175     564.561     277.961
  O      686.556     564.864     278.122
  C      684.987     563.619     276.756
  O      685.390     564.317     275.542
  C      685.827     562.326     276.865
  O      685.056     561.123     276.701
  C      686.917     562.551     275.844
  O      687.541     561.368     275.384
  C      686.185     563.392     274.784
  N      687.101     564.072     273.860
  C      686.854     563.907     272.491
  O      685.920     563.277     272.033
  N      687.764     564.489     271.657
  C      688.938     565.094     272.027
  O      689.756     565.504     271.221
  C      689.164     565.186     273.480
  C      688.236     564.693     274.325
  O      686.240     567.368     277.495
  O      686.520     566.567     279.951
  H      688.102     561.588     274.616
  H      686.897     565.900     280.543
  H      687.604     564.396     270.660
  H      690.093     565.647     273.809
  H      688.391     564.750     275.399
  H      685.502     562.784     274.190
  H      687.703     563.163     276.307
  H      686.264     562.233     277.866
  H      683.909     563.397     276.694
  H      684.621     565.488     277.784
  H      684.781     564.112     278.876
  P      685.548     559.659     277.145
  C      687.399     557.970     276.370
  O      686.801     559.244     276.227
  O      684.482     558.632     277.239
  O      686.233     559.907     278.576
  H      686.161     559.112     279.123
  H      688.453     558.037     276.088
  H      686.875     557.272     275.703
  H      687.305     557.618     277.408
  H      690.324     565.964     279.210
  H      689.111     564.706     279.189
  H      689.005     566.004     280.354

 3  4  5  6  7  8  9  10  11  12  13  23  28  29  30  31  32 0
 6-311+G(2d,p)
 ****
 33  34 0
 6-311+G(2d,p)
 ****
 1  2  14  15  16  17  18  19  20  21  22  24  25  26  27 0
 3-21G
 ****
 35  36  37  38  39  40  41  42  43  44  45 0
 3-21G
 ****


