%nproc=1
%NoSave
%Mem=1900MB
#P OB98/GEN NMR

erre ene a

0 1
  C      662.556     220.357     210.557
  O      662.279     218.972     210.488
  P      663.366     217.966     211.100
  C      661.562     216.191     211.743
  O      662.743     216.484     211.020
  C      661.053     214.802     211.369
  O      662.099     213.821     211.569
  C      659.878     214.327     212.210
  O      658.662     214.907     211.781
  C      659.932     212.810     211.994
  O      659.282     212.438     210.767
  C      661.454     212.562     211.905
  N      661.998     211.990     213.149
  C      661.868     210.612     213.272
  O      661.312     209.902     212.428
  N      662.368     210.073     214.431
  C      662.930     210.770     215.463
  O      663.300     210.231     216.502
  C      663.013     212.232     215.276
  C      662.546     212.759     214.142
  O      663.358     218.292     212.678
  O      664.739     218.099     210.517
  H      658.435     212.941     210.739
  H      664.262     218.217     213.029
  H      662.313     209.068     214.533
  H      663.450     212.811     216.083
  H      662.583     213.832     213.990
  H      661.671     211.874     211.087
  H      659.431     212.270     212.803
  H      660.059     214.553     213.274
  H      660.794     214.798     210.304
  H      660.806     216.938     211.517
  H      661.780     216.247     212.824
  P      657.810     215.729     212.859
  C      656.477     216.445     210.723
  O      656.455     216.147     212.109
  O      658.677     217.088     212.942
  O      657.661     215.008     214.158
  H      659.091     217.306     212.093
  H      657.187     215.825     210.187
  H      656.727     217.507     210.598
  H      655.475     216.271     210.315
  H      661.750     220.904     210.114
  H      663.463     220.566     210.028
  H      662.665     220.648     211.581

 3  4  5  6  7  8  9  10  11  12  13  23  28  29  30  31  32 0
 6-311+G(2d,p)
 ****
 33  34 0
 6-311+G(2d,p)
 ****
 1  2  14  15  16  17  18  19  20  21  22  24  25  26 0
 3-21G
 ****
 27  35  36  37  38  39  40  41  42  43  44  45 0
 3-21G
 ****


