%nproc=1
%NoSave
%Mem=1900MB
#P OB98/GEN NMR

erre ene a

0 1
  C      165.101      27.205    -898.570
  O      164.018      26.407    -898.150
  H      166.001      26.581    -898.600
  H      165.272      28.021    -897.860
  H      164.931      27.621    -899.570
  P      162.544      27.042    -898.160
  C      162.244      26.846    -895.610
  O      162.315      27.718    -896.730
  C      161.931      27.653    -894.350
  O      163.008      28.576    -894.070
  C      160.675      28.508    -894.460
  O      159.502      27.714    -894.330
  C      160.901      29.495    -893.330
  O      160.537      28.928    -892.060
  C      162.422      29.731    -893.420
  N      162.784      30.973    -894.120
  C      162.942      32.099    -893.340
  O      162.780      32.103    -892.110
  N      163.276      33.244    -894.010
  C      163.347      33.394    -895.360
  O      163.557      34.473    -895.920
  C      163.137      32.167    -896.140
  C      162.864      31.028    -895.500
  O      161.452      26.119    -898.620
  O      162.685      28.299    -899.140
  H      159.582      28.744    -892.100
  H      162.272      28.094    -900.000
  H      163.392      34.084    -893.450
  H      163.192      32.241    -897.220
  H      162.708      30.116    -896.060
  H      162.866      29.773    -892.410
  H      160.308      30.412    -893.450
  H      160.675      29.050    -895.410
  H      161.854      26.957    -893.500
  H      163.210      26.339    -895.490
  H      161.466      26.093    -895.780
  P      158.092      28.275    -894.870
  C      157.063      28.061    -892.530
  O      157.311      28.929    -893.630
  O      157.306      27.314    -895.690
  O      158.509      29.551    -895.760
  H      158.230      29.411    -896.680
  H      156.541      28.596    -891.764
  H      157.993      27.701    -892.143
  H      156.469      27.233    -892.856

 6  7  8  9  10  11  12  13  14  15  16  26  31  32  33  34  35 0
 6-311+G(2d,p)
 ****
 36  37 0
 6-311+G(2d,p)
 ****
 1  2  3  4  5  17  18  19  20  21  22  23  24  25 0
 3-21G
 ****
 27  28  29  30  38  39  40  41  42  43  44  45 0
 3-21G
 ****


