%nproc=1
%NoSave
%Mem=1900MB
#P OB98/GEN NMR

erre ene a

0 1
  C     -424.649    -375.127     137.728
  O     -425.034    -376.516     137.716
  P     -426.031    -377.168     138.787
  C     -424.184    -377.324     140.595
  O     -425.475    -376.835     140.257
  C     -423.721    -376.782     141.956
  O     -424.590    -377.285     143.010
  C     -422.327    -377.209     142.387
  O     -421.306    -376.534     141.670
  C     -422.366    -376.874     143.873
  O     -422.062    -375.486     144.114
  C     -423.841    -377.150     144.234
  N     -424.001    -378.340     145.061
  C     -423.966    -378.134     146.460
  O     -423.718    -377.014     146.913
  N     -424.190    -379.217     147.283
  C     -424.335    -380.403     146.768
  N     -424.567    -381.427     147.630
  C     -424.249    -380.674     145.316
  C     -424.081    -379.606     144.540
  O     -426.307    -378.622     138.563
  O     -427.390    -376.313     138.673
  H     -428.143    -376.854     138.963
  H     -422.166    -375.334     145.069
  H     -424.320    -381.688     144.944
  H     -424.008    -379.714     143.460
  H     -424.270    -376.288     144.752
  H     -421.641    -377.465     144.448
  H     -422.220    -378.289     142.257
  H     -423.807    -375.681     141.924
  H     -424.640    -381.210     148.617
  H     -423.481    -376.995     139.822
  H     -424.729    -382.382     147.329
  H     -424.205    -378.427     140.598
  P     -420.510    -377.388     140.567
  C     -418.470    -377.939     142.111
  O     -419.580    -378.439     141.373
  O     -419.451    -376.337     139.974
  O     -421.355    -377.987     139.499
  H     -419.357    -376.478     139.004
  H     -418.270    -378.638     142.926
  H     -418.674    -376.945     142.518
  H     -417.592    -377.900     141.452
  H     -423.979    -374.936     136.916
  H     -424.162    -374.900     138.653
  H     -425.520    -374.515     137.624

 3  4  5  6  7  8  9  10  11  12  13  24  27  28  29  30  32 0
 6-311+G(2d,p)
 ****
 34  35 0
 6-311+G(2d,p)
 ****
 1  2  14  15  16  17  18  19  20  21  22  23  25  26 0
 3-21G
 ****
 31  33  36  37  38  39  40  41  42  43  44  45  46 0
 3-21G
 ****


