%nproc=1
%NoSave
%Mem=1900MB
#P OB98/GEN NMR

erre ene a

0 1
  C      486.178    -888.950    -431.843
  O      487.318    -889.700    -431.452
  P      487.225    -891.300    -431.532
  C      488.464    -891.480    -433.820
  O      487.263    -891.690    -433.088
  C      488.454    -892.300    -435.109
  O      488.436    -893.710    -434.770
  C      487.244    -892.040    -436.025
  O      487.696    -892.210    -437.371
  C      486.301    -893.170    -435.662
  O      485.336    -893.430    -436.685
  C      487.279    -894.300    -435.408
  N      485.525    -899.030    -435.209
  C      485.933    -898.280    -436.295
  N      485.932    -898.910    -437.493
  N      486.323    -897.040    -436.220
  C      486.285    -896.550    -434.959
  C      485.871    -897.180    -433.807
  C      485.488    -898.570    -433.897
  O      485.204    -899.300    -432.953
  N      485.904    -896.330    -432.732
  C      486.415    -895.230    -433.217
  N      486.703    -895.320    -434.545
  O      485.705    -891.590    -431.112
  O      488.213    -892.050    -430.691
  H      485.823    -893.650    -437.503
  H      485.644    -891.780    -430.155
  H      485.257    -900.000    -435.323
  H      486.601    -894.320    -432.650
  H      487.610    -894.790    -436.329
  H      485.747    -892.910    -434.743
  H      485.671    -899.880    -437.624
  H      486.812    -891.050    -435.899
  H      486.252    -898.390    -438.303
  H      489.391    -892.100    -435.651
  H      489.312    -891.800    -433.209
  H      488.584    -890.410    -434.027
  P      487.845    -890.910    -438.290
  C      490.396    -890.690    -438.655
  O      489.257    -890.230    -437.955
  O      486.790    -889.890    -437.639
  O      487.544    -891.120    -439.735
  H      486.420    -889.320    -438.326
  H      491.165    -889.900    -438.629
  H      490.168    -890.920    -439.693
  H      490.786    -891.590    -438.164
  H      486.385    -887.905    -431.738
  H      485.348    -889.213    -431.222
  H      485.942    -889.166    -432.864

 3  4  5  6  7  8  9  10  11  12  23  26  30  31 0
 6-311+G(2d,p)
 ****
 33  35  36  37  38 0
 6-311+G(2d,p)
 ****
 1  2  13  14  15  16  17  18  19  20  21  22  24  25 0
 3-21G
 ****
 27  28  29  32  34  39  40  41  42  43  44  45  46  47  48  49 0
 3-21G
 ****


