%nproc=1
%NoSave
%Mem=1900MB
#P OB98/GEN NMR

erre ene a

0 1
  C      606.983     188.527    -232.222
  O      607.223     189.943    -232.164
  P      606.062     191.039    -232.299
  C      606.363     192.570    -230.238
  O      605.633     191.505    -230.811
  C      605.842     192.895    -228.829
  O      604.487     193.407    -228.898
  C      605.731     191.702    -227.892
  O      607.005     191.260    -227.420
  C      604.818     192.264    -226.802
  O      605.564     193.007    -225.833
  C      603.897     193.213    -227.598
  N      602.536     192.728    -227.706
  C      601.650     193.104    -226.682
  O      602.054     193.739    -225.721
  N      600.333     192.737    -226.791
  C      599.955     191.957    -227.765
  N      598.635     191.627    -227.824
  C      600.886     191.427    -228.771
  C      602.146     191.848    -228.698
  O      604.914     190.606    -233.151
  O      606.779     192.341    -232.920
  H      606.118     192.874    -233.394
  H      604.915     193.452    -225.247
  H      600.531     190.745    -229.552
  H      602.888     191.521    -229.412
  H      603.897     194.203    -227.134
  H      604.279     191.476    -226.265
  H      605.217     190.876    -228.407
  H      606.484     193.666    -228.391
  H      598.018     192.022    -227.116
  H      606.251     193.470    -230.863
  H      598.237     191.060    -228.548
  H      607.433     192.313    -230.194
  P      607.302     189.689    -227.514
  C      609.809     190.292    -227.826
  O      608.715     189.502    -228.250
  O      606.227     189.160    -228.589
  O      607.164     188.961    -226.204
  H      605.897     188.289    -228.303
  H      610.738     189.739    -228.028
  H      609.763     190.501    -226.748
  H      609.810     191.224    -228.385
  H      607.909     188.003    -232.108
  H      606.546     188.278    -233.166
  H      606.315     188.246    -231.435

 3  4  5  6  7  8  9  10  11  12  13  24  27  28  29  30  32 0
 6-311+G(2d,p)
 ****
 34  35 0
 6-311+G(2d,p)
 ****
 1  2  14  15  16  17  18  19  20  21  22  23  25  26 0
 3-21G
 ****
 31  33  36  37  38  39  40  41  42  43  44  45  46 0
 3-21G
 ****


