%nproc=1
%NoSave
%Mem=1900MB
#P OB98/GEN NMR

erre ene a

0 1
  C        8.515     -11.232     -68.140
  O        7.822     -10.149     -67.544
  P        8.661      -9.069     -66.712
  C        8.866     -10.445     -64.516
  O        9.533      -9.864     -65.625
  C        9.000      -9.549     -63.283
  O        8.349     -10.191     -62.146
  C       10.452      -9.261     -62.874
  O       10.494      -7.934     -62.331
  C       10.687     -10.272     -61.768
  O       11.780      -9.936     -60.926
  C        9.318     -10.242     -61.080
  N        9.097     -11.391     -60.203
  C        8.889     -11.132     -58.853
  O        8.882     -10.004     -58.361
  N        8.746     -12.232     -58.051
  C        8.878     -13.533     -58.439
  O        8.855     -14.470     -57.649
  C        9.098     -13.745     -59.878
  C        9.195     -12.683     -60.681
  O        7.544      -8.331     -65.838
  O        9.442      -8.110     -67.546
  H       11.550      -9.108     -60.466
  H        7.303      -7.477     -66.244
  H        8.583     -12.063     -57.070
  H        9.186     -14.767     -60.225
  H        9.377     -12.810     -61.743
  H        9.207      -9.316     -60.502
  H       10.892     -11.254     -62.209
  H       11.167      -9.359     -63.697
  H        8.465      -8.610     -63.474
  H        9.309     -11.418     -64.301
  H        7.811     -10.604     -64.764
  P       11.826      -7.068     -62.566
  C       12.721      -7.580     -60.165
  O       12.930      -7.639     -61.559
  O       11.392      -5.671     -61.911
  O       12.224      -6.956     -64.001
  H       10.921      -5.783     -61.068
  H       11.665      -7.707     -59.911
  H       13.068      -6.617     -59.786
  H       13.296      -8.377     -59.686
  H        7.819     -11.860     -68.656
  H        9.012     -11.799     -67.380
  H        9.237     -10.855     -68.833

 3  4  5  6  7  8  9  10  11  12  13  23  28  29  30  31  32 0
 6-311+G(2d,p)
 ****
 33  34 0
 6-311+G(2d,p)
 ****
 1  2  14  15  16  17  18  19  20  21  22  24  25  26 0
 3-21G
 ****
 27  35  36  37  38  39  40  41  42  43  44  45 0
 3-21G
 ****


