%nproc=1
%NoSave
%Mem=1900MB
#P OB98/GEN NMR

erre ene a

0 1
  C      -25.240      78.420    -612.990
  O      -23.847      78.191    -612.871
  P      -23.285      76.789    -612.335
  C      -22.410      75.961    -610.083
  O      -23.314      76.835    -610.732
  C      -22.842      75.689    -608.637
  O      -22.732      76.914    -607.854
  C      -24.293      75.179    -608.493
  O      -24.301      74.276    -607.387
  C      -25.054      76.453    -608.122
  O      -26.297      76.190    -607.481
  C      -24.020      77.141    -607.235
  N      -26.539      80.751    -604.630
  C      -26.568      79.404    -604.553
  N      -25.881      78.500    -605.316
  C      -25.111      79.127    -606.199
  C      -25.004      80.491    -606.425
  C      -25.756      81.341    -605.573
  N      -25.716      82.713    -605.624
  N      -24.145      80.752    -607.485
  C      -23.753      79.567    -607.880
  N      -24.241      78.557    -607.108
  O      -21.971      76.362    -612.931
  O      -24.448      75.740    -612.705
  H      -26.731      77.044    -607.280
  H      -24.186      75.188    -613.456
  H      -27.223      78.989    -603.788
  H      -23.101      79.368    -608.744
  H      -23.975      76.700    -606.224
  H      -25.251      77.042    -609.024
  H      -24.687      74.706    -609.389
  H      -22.144      74.963    -608.198
  H      -21.421      76.457    -610.070
  H      -26.191      83.206    -604.896
  H      -24.950      83.166    -606.116
  H      -22.318      75.019    -610.642
  P      -24.984      72.815    -607.545
  C      -27.313      71.931    -608.119
  O      -26.531      73.074    -607.805
  O      -24.662      71.844    -606.464
  O      -24.453      72.317    -608.974
  H      -24.575      71.355    -609.049
  H      -27.174      71.680    -609.167
  H      -28.365      72.130    -607.920
  H      -27.008      71.055    -607.511
  H      -25.408      79.409    -613.363
  H      -25.702      78.317    -612.030
  H      -25.662      77.707    -613.667

 3  4  5  6  7  8  9  10  11  12  22  25  29  30  31  32 0
 6-311+G(2d,p)
 ****
 33  36  37 0
 6-311+G(2d,p)
 ****
 1  2  13  14  15  16  17  18  19  20  21  23  24  26 0
 3-21G
 ****
 27  28  34  35  38  39  40  41  42  43  44  45  46  47  48 0
 3-21G
 ****


