%nproc=1
%NoSave
%Mem=1900MB
#P OB98/GEN NMR

erre ene a

0 1
  C     -673.771     316.162     549.106
  O     -672.437     315.716     549.239
  H     -673.911     316.549     548.089
  H     -673.970     316.967     549.819
  H     -674.475     315.339     549.265
  P     -672.071     314.894     550.567
  C     -669.724     314.216     549.665
  O     -670.466     314.890     550.672
  C     -668.235     314.502     549.834
  O     -667.957     315.848     549.355
  C     -667.742     314.435     551.288
  O     -666.425     313.890     551.303
  C     -667.690     315.893     551.704
  O     -666.808     316.152     552.790
  C     -667.246     316.546     550.395
  N     -667.531     317.978     550.360
  C     -666.750     318.807     551.160
  O     -665.787     318.431     551.829
  N     -667.115     320.132     551.173
  C     -668.163     320.683     550.497
  O     -668.458     321.872     550.564
  C     -668.952     319.758     549.673
  C     -668.604     318.468     549.645
  O     -672.416     313.385     550.165
  O     -672.770     315.331     551.808
  H     -673.346     313.181     550.387
  H     -666.946     317.096     553.054
  H     -666.561     320.743     551.743
  H     -669.806     320.164     549.138
  H     -669.184     317.748     549.063
  H     -666.175     316.380     550.227
  H     -668.690     316.235     551.995
  H     -668.392     313.840     551.957
  H     -667.662     313.811     549.208
  H     -670.041     314.582     548.680
  H     -669.923     313.144     549.725
  P     -666.249     312.385     551.828
  C     -663.904     312.151     550.680
  O     -664.669     312.126     551.880
  O     -666.742     311.556     550.552
  O     -666.990     312.113     553.093
  H     -666.511     311.980     549.704
  H     -662.876     311.959     550.908
  H     -663.993     313.113     550.220
  H     -664.267     311.400     550.010

 6  7  8  9  10  11  12  13  14  15  16  27  31  32  33  34  35 0
 6-311+G(2d,p)
 ****
 36  37 0
 6-311+G(2d,p)
 ****
 1  2  3  4  5  17  18  19  20  21  22  23  24  25 0
 3-21G
 ****
 26  28  29  30  38  39  40  41  42  43  44  45 0
 3-21G
 ****


