%nproc=1
%NoSave
%Mem=1900MB
#P OB98/GEN NMR

erre ene a

0 1
  C      -82.100     -11.965     115.001
  O      -82.322     -11.172     113.851
  P      -83.739     -10.473     113.589
  C      -85.093      -8.631     114.743
  O      -84.158      -9.685     114.921
  C      -85.883      -8.364     116.023
  O      -86.749      -9.499     116.301
  C      -85.012      -8.121     117.264
  O      -85.655      -7.106     118.044
  C      -85.061      -9.456     117.982
  O      -84.753      -9.339     119.366
  C      -86.491      -9.901     117.664
  N      -86.682     -11.333     117.837
  C      -87.456     -11.740     118.929
  O      -87.834     -10.916     119.757
  N      -87.766     -13.072     119.047
  C      -87.195     -13.937     118.262
  N      -87.580     -15.238     118.372
  C      -86.172     -13.563     117.263
  C      -85.999     -12.254     117.074
  O      -84.796     -11.374     113.041
  O      -83.408      -9.288     112.557
  H      -84.001      -9.367     111.784
  H      -83.838      -8.999     119.458
  H      -85.635     -14.326     116.719
  H      -85.292     -11.879     116.340
  H      -87.213      -9.371     118.300
  H      -84.335     -10.145     117.528
  H      -83.999      -7.795     117.012
  H      -86.537      -7.496     115.847
  H      -88.312     -15.450     119.037
  H      -85.786      -8.915     113.947
  H      -87.440     -15.908     117.615
  H      -84.573      -7.720     114.415
  P      -84.734      -6.121     118.924
  C      -82.772      -4.495     118.437
  O      -83.568      -5.567     117.974
  O      -83.943      -7.163     119.855
  O      -85.450      -5.122     119.775
  H      -83.668      -6.714     120.674
  H      -82.079      -4.207     117.644
  H      -82.192      -4.803     119.312
  H      -83.396      -3.632     118.690
  H      -81.097     -12.338     114.989
  H      -82.786     -12.786     115.006
  H      -82.249     -11.371     115.878

 3  4  5  6  7  8  9  10  11  12  13  24  27  28  29  30  32 0
 6-311+G(2d,p)
 ****
 34  35 0
 6-311+G(2d,p)
 ****
 1  2  14  15  16  17  18  19  20  21  22  23  25  26 0
 3-21G
 ****
 31  33  36  37  38  39  40  41  42  43  44  45  46 0
 3-21G
 ****


