%nproc=1
%NoSave
%Mem=1900MB
#P OB98/GEN NMR

erre ene a

0 1
  C       98.694     175.795     172.012
  O       99.348     176.748     172.856
  P       98.490     177.935     173.506
  C       97.563     176.980     175.714
  O       98.544     177.806     175.104
  C       97.853     176.791     177.212
  O       98.901     175.803     177.391
  C       98.305     178.091     177.901
  O       97.566     178.381     179.090
  C       99.802     177.892     178.082
  O      100.347     178.683     179.129
  C       99.931     176.371     178.226
  N      101.268     175.893     177.865
  C      102.308     176.243     178.721
  O      102.161     176.983     179.693
  N      103.546     175.769     178.380
  C      103.851     175.059     177.259
  O      104.989     174.697     176.978
  C      102.724     174.773     176.357
  C      101.501     175.197     176.701
  O       97.126     178.140     172.930
  O       99.411     179.227     173.237
  H      101.322     178.607     179.093
  H       98.824     179.975     173.010
  H      104.307     175.999     178.998
  H      102.930     174.232     175.446
  H      100.657     175.009     176.049
  H       99.743     176.059     179.258
  H      100.307     178.199     177.155
  H       98.130     178.965     177.264
  H       96.937     176.411     177.677
  H       97.558     176.001     175.232
  H       96.569     177.407     175.541
  P       96.605     179.645     179.272
  C       94.233     178.903     180.007
  O       95.530     179.300     180.408
  O       96.032     180.214     178.012
  O       97.559     180.726     179.984
  H       97.381     181.610     179.602
  H       93.544     179.065     180.843
  H       94.237     177.837     179.761
  H       93.881     179.476     179.141
  H       99.407     175.077     171.665
  H       98.260     176.299     171.174
  H       97.926     175.296     172.565

 3  4  5  6  7  8  9  10  11  12  13  23  28  29  30  31  32 0
 6-311+G(2d,p)
 ****
 33  34 0
 6-311+G(2d,p)
 ****
 1  2  14  15  16  17  18  19  20  21  22  24  25  26  27 0
 3-21G
 ****
 35  36  37  38  39  40  41  42  43  44  45 0
 3-21G
 ****


