%nproc=1
%NoSave
%Mem=1900MB
#P OB98/GEN NMR

erre ene a

0 1
  C       -0.949     141.685    -454.026
  O       -0.139     142.673    -454.633
  H       -1.588     141.207    -454.776
  H       -0.303     140.924    -453.581
  H       -1.565     142.129    -453.239
  P       -0.898     143.896    -455.343
  C        0.099     145.694    -453.751
  O       -1.068     145.021    -454.210
  C       -0.248     147.136    -453.391
  O       -0.513     147.895    -454.591
  C       -1.493     147.281    -452.523
  O       -1.223     147.044    -451.153
  C       -1.832     148.742    -452.771
  O       -0.948     149.584    -452.009
  C       -1.538     148.881    -454.275
  N       -6.217     150.545    -455.501
  C       -5.311     150.982    -454.601
  N       -4.090     150.477    -454.330
  C       -3.830     149.417    -455.108
  C       -4.653     148.853    -456.065
  C       -5.902     149.468    -456.261
  N       -6.837     149.016    -457.170
  N       -4.057     147.745    -456.634
  C       -2.878     147.663    -456.053
  N       -2.698     148.648    -455.115
  O       -2.390     143.351    -455.537
  O       -0.295     144.380    -456.617
  H       -1.160     150.506    -452.255
  H       -2.845     143.864    -456.232
  H       -5.613     151.849    -454.016
  H       -2.123     146.917    -456.275
  H       -1.136     149.868    -454.534
  H       -2.852     148.998    -452.481
  H       -2.312     146.656    -452.886
  H        0.628     147.580    -452.900
  H        0.854     145.688    -454.544
  H       -7.761     149.410    -457.101
  H       -6.671     148.130    -457.626
  H        0.497     145.166    -452.876
  P       -2.479     146.908    -450.163
  C       -3.173     144.635    -451.221
  O       -3.538     145.983    -450.932
  O       -3.142     148.361    -450.219
  O       -2.133     146.492    -448.771
  H       -3.636     148.550    -449.400
  H       -3.977     144.150    -451.733
  H       -2.968     144.117    -450.307
  H       -2.300     144.627    -451.840

 6  7  8  9  10  11  12  13  14  15  25  28  32  33  34  35 0
 6-311+G(2d,p)
 ****
 36  39  40 0
 6-311+G(2d,p)
 ****
 1  2  3  4  5  16  17  18  19  20  21  22  23  24 0
 3-21G
 ****
 26  27  29  30  31  37  38  41  42  43  44  45  46  47 0
 3-21G
 ****
 48 0
 3-21G
 ****


