%nproc=1
%NoSave
%Mem=1900MB
#P OB98/GEN NMR

erre ene a

0 1
  C     -226.661       6.905    -179.596
  O     -225.254       6.995    -179.544
  H     -227.011       7.430    -180.489
  H     -227.093       7.385    -178.714
  H     -226.994       5.865    -179.647
  P     -224.451       5.969    -178.615
  C     -224.864       7.620    -176.674
  O     -224.866       6.261    -177.090
  C     -224.101       7.818    -175.365
  O     -224.147       9.206    -174.963
  C     -224.712       7.023    -174.211
  O     -224.302       5.671    -174.121
  C     -224.238       7.819    -172.998
  O     -222.924       7.405    -172.593
  C     -224.211       9.257    -173.528
  N     -226.255      12.360    -170.018
  C     -225.031      11.717    -170.005
  N     -224.285      11.878    -168.887
  N     -224.597      10.974    -170.987
  C     -225.488      10.830    -171.995
  C     -226.736      11.404    -172.115
  C     -227.186      12.269    -171.044
  O     -228.265      12.855    -171.003
  N     -227.354      11.026    -173.284
  C     -226.515      10.168    -173.831
  N     -225.357      10.036    -173.098
  O     -222.941       6.512    -178.671
  O     -224.521       4.533    -179.035
  H     -222.323       7.506    -173.353
  H     -222.319       5.780    -178.507
  H     -226.527      12.941    -169.243
  H     -226.685       9.639    -174.762
  H     -223.313       9.792    -173.188
  H     -224.895       7.673    -172.136
  H     -224.628      12.343    -168.061
  H     -225.806       7.075    -174.250
  H     -223.518      11.222    -168.729
  H     -223.046       7.561    -175.520
  H     -225.910       7.911    -176.545
  H     -224.448       8.257    -177.462
  P     -225.390       4.516    -173.901
  C     -225.103       4.576    -171.315
  O     -225.972       4.695    -172.419
  O     -224.488       3.196    -173.801
  O     -226.417       4.407    -174.977
  H     -224.449       2.745    -174.666
  H     -225.654       4.723    -170.410
  H     -224.332       5.314    -171.387
  H     -224.664       3.600    -171.310

 6  7  8  9  10  11  12  13  14  15  26  29  33  34 0
 6-311+G(2d,p)
 ****
 36  38  39  40  41 0
 6-311+G(2d,p)
 ****
 1  2  3  4  5  16  17  18  19  20  21  22  23  24  25 0
 3-21G
 ****
 27  28  30  31  32  35  37  42  43  44  45  46  47 0
 3-21G
 ****
 48  49 0
 3-21G
 ****


