%nproc=1
%NoSave
%Mem=1900MB
#P OB98/GEN NMR

erre ene a

0 1
  C       24.092    -121.390     -22.566
  O       23.061    -120.539     -23.027
  H       24.797    -121.561     -23.386
  H       23.685    -122.354     -22.250
  H       24.630    -120.920     -21.737
  P       21.853    -120.196     -22.034
  C       20.403    -122.170     -22.873
  O       21.081    -121.576     -21.770
  C       19.354    -123.169     -22.384
  O       19.950    -124.117     -21.477
  C       18.199    -122.532     -21.620
  O       17.310    -121.882     -22.507
  C       17.634    -123.750     -20.905
  O       16.832    -124.544     -21.794
  C       18.933    -124.504     -20.523
  N       19.378    -124.240     -19.158
  C       18.401    -124.345     -18.160
  O       17.241    -124.629     -18.456
  N       18.767    -124.105     -16.858
  C       20.001    -123.831     -16.569
  N       20.300    -123.608     -15.260
  C       21.068    -123.746     -17.586
  C       20.687    -123.947     -18.846
  O       20.965    -119.059     -22.440
  O       22.574    -119.910     -20.634
  H       16.651    -125.380     -21.320
  H       22.740    -118.954     -20.523
  H       22.086    -123.524     -17.299
  H       21.412    -123.902     -19.655
  H       18.793    -125.588     -20.630
  H       17.002    -123.479     -20.060
  H       18.581    -121.835     -20.864
  H       18.990    -123.728     -23.256
  H       19.537    -123.700     -14.596
  H       21.160    -122.685     -23.476
  H       21.242    -123.549     -14.904
  H       19.930    -121.402     -23.496
  P       16.952    -120.327     -22.347
  C       14.819    -120.989     -21.067
  O       16.018    -120.228     -21.044
  O       16.396    -119.673     -23.567
  O       18.323    -119.673     -21.841
  H       18.954    -119.569     -22.594
  H       14.286    -120.842     -20.151
  H       15.057    -122.026     -21.179
  H       14.211    -120.672     -21.888

 6  7  8  9  10  11  12  13  14  15  16  26  30  31  32  33  35 0
 6-311+G(2d,p)
 ****
 37  38 0
 6-311+G(2d,p)
 ****
 1  2  3  4  5  17  18  19  20  21  22  23  24  25 0
 3-21G
 ****
 27  28  29  34  36  39  40  41  42  43  44  45  46 0
 3-21G
 ****


