%nproc=1
%NoSave
%Mem=1900MB
#P OB98/GEN NMR

erre ene a

0 1
  C     -212.366    -456.132     208.739
  O     -211.348    -455.194     209.027
  H     -213.311    -455.599     208.614
  H     -212.463    -456.836     209.568
  H     -212.140    -456.671     207.815
  P     -209.834    -455.718     209.015
  C     -208.970    -453.997     207.260
  O     -209.236    -455.361     207.564
  C     -207.569    -453.863     206.664
  O     -207.536    -454.567     205.392
  C     -207.142    -452.407     206.394
  O     -205.736    -452.287     206.659
  C     -207.391    -452.248     204.903
  O     -206.623    -451.212     204.305
  C     -207.023    -453.646     204.402
  N     -207.575    -453.933     203.079
  C     -206.692    -454.382     202.099
  O     -205.505    -454.627     202.286
  N     -207.229    -454.538     200.846
  C     -208.519    -454.274     200.483
  O     -208.935    -454.417     199.336
  C     -209.402    -453.798     201.562
  C     -208.903    -453.649     202.788
  O     -210.009    -457.310     208.960
  O     -208.988    -455.273     210.161
  H     -210.051    -457.679     209.861
  H     -205.695    -451.519     204.265
  H     -206.604    -454.858     200.130
  H     -210.431    -453.573     201.309
  H     -209.511    -453.277     203.599
  H     -205.934    -453.768     204.374
  H     -208.445    -452.033     204.722
  H     -207.694    -451.662     206.985
  H     -206.850    -454.363     207.325
  H     -209.026    -453.407     208.184
  H     -209.725    -453.629     206.557
  P     -205.191    -450.851     207.109
  C     -205.446    -451.194     209.694
  O     -205.896    -450.539     208.516
  O     -205.936    -449.895     206.070
  O     -203.700    -450.763     207.097
  H     -206.831    -450.203     205.850
  H     -206.028    -450.865     210.529
  H     -204.416    -450.958     209.862
  H     -205.555    -452.252     209.578

 6  7  8  9  10  11  12  13  14  15  16  27  31  32  33  34  35 0
 6-311+G(2d,p)
 ****
 36  37 0
 6-311+G(2d,p)
 ****
 1  2  3  4  5  17  18  19  20  21  22  23  24  25 0
 3-21G
 ****
 26  28  29  30  38  39  40  41  42  43  44  45 0
 3-21G
 ****


