%nproc=1
%NoSave
%Mem=1900MB
#P OB98/GEN NMR

erre ene a

0 1
  C      111.243     -57.896     -28.288
  O      112.138     -57.647     -27.224
  H      111.823     -58.075     -29.197
  H      110.593     -57.033     -28.452
  H      110.640     -58.784     -28.079
  P      111.539     -57.287     -25.783
  C      110.779     -54.920     -26.479
  O      110.376     -56.207     -26.022
  C      109.895     -53.837     -25.852
  O      108.539     -54.052     -26.315
  C      109.896     -53.893     -24.317
  O      110.215     -52.642     -23.712
  C      108.543     -54.511     -23.989
  O      108.030     -54.169     -22.718
  C      107.667     -54.075     -25.170
  N      106.522     -54.949     -25.411
  C      105.383     -54.737     -24.640
  O      105.257     -53.858     -23.791
  N      104.337     -55.589     -24.884
  C      104.322     -56.606     -25.790
  O      103.352     -57.333     -25.968
  C      105.562     -56.795     -26.558
  C      106.589     -55.972     -26.336
  O      112.539     -56.906     -24.744
  O      110.727     -58.601     -25.362
  H      108.649     -54.519     -22.044
  H      111.247     -59.112     -24.714
  H      103.503     -55.437     -24.339
  H      105.589     -57.600     -27.279
  H      107.519     -56.082     -26.887
  H      107.286     -53.066     -25.012
  H      108.651     -55.602     -24.008
  H      110.687     -54.558     -23.952
  H      110.220     -52.858     -26.223
  H      110.684     -54.905     -27.569
  H      111.827     -54.746     -26.210
  P      111.639     -52.268     -23.097
  C      111.247     -52.843     -20.569
  O      111.875     -53.173     -21.799
  O      111.921     -50.809     -22.965
  O      112.678     -52.870     -24.175
  H      113.456     -52.276     -24.172
  H      111.524     -53.559     -19.824
  H      110.185     -52.853     -20.697
  H      111.559     -51.868     -20.259

 6  7  8  9  10  11  12  13  14  15  16  26  31  32  33  34  35 0
 6-311+G(2d,p)
 ****
 36  37 0
 6-311+G(2d,p)
 ****
 1  2  3  4  5  17  18  19  20  21  22  23  24  25 0
 3-21G
 ****
 27  28  29  30  38  39  40  41  42  43  44  45 0
 3-21G
 ****


