%nproc=1
%NoSave
%Mem=1900MB
#P OB98/GEN NMR

erre ene a

0 1
  C      448.708     262.479     -34.034
  O      450.036     262.874     -34.316
  H      448.207     262.237     -34.974
  H      448.170     263.302     -33.548
  H      448.701     261.596     -33.388
  P      451.004     263.112     -33.061
  C      451.570     265.625     -32.548
  O      450.641     264.553     -32.446
  C      451.390     266.343     -33.885
  O      449.996     266.591     -34.161
  C      452.018     267.729     -33.929
  O      453.426     267.689     -33.969
  C      451.380     268.278     -35.197
  O      452.035     267.772     -36.369
  C      449.943     267.712     -35.086
  N      448.977     268.717     -34.660
  C      448.616     269.664     -35.630
  O      449.097     269.609     -36.763
  N      447.742     270.665     -35.277
  C      447.249     270.701     -34.078
  N      446.396     271.722     -33.791
  C      447.584     269.708     -33.035
  C      448.450     268.759     -33.390
  O      452.421     263.369     -33.756
  O      451.005     262.020     -32.042
  H      451.670     268.272     -37.125
  H      452.404     264.071     -34.430
  H      447.146     269.776     -32.050
  H      448.748     267.994     -32.685
  H      449.608     267.311     -36.051
  H      451.439     269.369     -35.249
  H      451.662     268.333     -33.084
  H      451.788     265.694     -34.679
  H      446.209     272.395     -34.525
  H      452.598     265.265     -32.440
  H      445.979     271.874     -32.882
  H      451.372     266.314     -31.720
  P      454.292     268.948     -33.482
  C      455.536     270.314     -35.275
  O      454.270     270.005     -34.694
  O      455.656     268.621     -32.967
  O      453.340     269.655     -32.403
  H      452.477     269.948     -32.751
  H      455.402     271.022     -36.066
  H      455.976     269.421     -35.667
  H      456.179     270.731     -34.528

 6  7  8  9  10  11  12  13  14  15  16  26  30  31  32  33  35 0
 6-311+G(2d,p)
 ****
 37  38 0
 6-311+G(2d,p)
 ****
 1  2  3  4  5  17  18  19  20  21  22  23  24  25 0
 3-21G
 ****
 27  28  29  34  36  39  40  41  42  43  44  45  46 0
 3-21G
 ****


