%nproc=1
%NoSave
%Mem=1900MB
#P OB98/GEN NMR

erre ene a

0 1
  C      531.267    -398.079    -138.184
  O      530.943    -397.407    -136.986
  H      532.355    -398.153    -138.258
  H      530.891    -397.509    -139.039
  H      530.846    -399.088    -138.201
  P      529.459    -397.542    -136.405
  C      530.117    -399.600    -134.988
  O      529.236    -399.078    -135.976
  C      529.446    -399.689    -133.617
  O      528.233    -400.476    -133.696
  C      530.328    -400.380    -132.575
  O      531.279    -399.550    -131.939
  C      529.293    -400.897    -131.581
  O      528.956    -399.875    -130.621
  C      528.089    -401.211    -132.474
  N      526.535    -405.805    -130.830
  C      526.546    -404.599    -130.161
  N      526.151    -404.631    -128.865
  N      526.932    -403.469    -130.699
  C      527.393    -403.601    -131.972
  C      527.436    -404.750    -132.740
  C      526.957    -405.977    -132.148
  O      526.928    -407.079    -132.698
  N      527.967    -404.500    -133.985
  C      528.306    -403.221    -133.941
  N      527.950    -402.628    -132.747
  O      528.527    -397.412    -137.708
  O      529.077    -396.528    -135.367
  H      529.615    -399.893    -129.907
  H      527.652    -397.067    -137.453
  H      526.194    -406.630    -130.383
  H      528.783    -402.676    -134.746
  H      527.151    -400.873    -132.008
  H      529.669    -401.755    -131.010
  H      525.960    -405.490    -128.375
  H      530.831    -401.246    -133.027
  H      526.399    -403.834    -128.269
  H      529.150    -398.682    -133.292
  H      530.972    -398.927    -134.940
  H      530.492    -400.585    -135.295
  P      532.629    -400.182    -131.353
  C      534.261    -399.119    -133.087
  O      533.663    -400.291    -132.575
  O      532.214    -401.693    -131.060
  O      533.163    -399.506    -130.131
  H      531.973    -401.808    -130.120
  H      534.917    -399.376    -133.892
  H      534.819    -398.636    -132.312
  H      533.500    -398.457    -133.444

 6  7  8  9  10  11  12  13  14  15  26  29  33  34 0
 6-311+G(2d,p)
 ****
 36  38  39  40  41 0
 6-311+G(2d,p)
 ****
 1  2  3  4  5  16  17  18  19  20  21  22  23  24  25 0
 3-21G
 ****
 27  28  30  31  32  35  37  42  43  44  45  46  47 0
 3-21G
 ****
 48  49 0
 3-21G
 ****


