%nproc=1
%NoSave
%Mem=1900MB
#P OB98/GEN NMR

erre ene a

0 1
  C      230.652    -383.336    1130.494
  O      229.479    -382.573    1130.319
  H      231.479    -382.663    1130.744
  H      230.898    -383.859    1129.567
  H      230.535    -384.059    1131.308
  P      228.065    -383.327    1130.238
  C      227.214    -382.686    1132.592
  O      227.677    -383.743    1131.739
  C      226.590    -383.270    1133.871
  O      227.642    -383.945    1134.643
  C      225.954    -382.208    1134.791
  O      224.860    -382.841    1135.462
  C      227.078    -381.915    1135.757
  O      226.609    -381.274    1136.916
  C      227.664    -383.315    1135.947
  N      229.009    -383.287    1136.509
  C      229.125    -383.547    1137.873
  O      228.152    -383.753    1138.606
  N      230.393    -383.509    1138.389
  C      231.530    -383.186    1137.702
  O      232.635    -383.129    1138.226
  C      231.346    -382.882    1136.279
  C      230.118    -382.949    1135.751
  O      227.984    -384.447    1129.245
  O      227.013    -382.163    1129.907
  H      227.357    -381.027    1137.505
  H      226.270    -382.520    1129.393
  H      230.488    -383.701    1139.378
  H      232.211    -382.610    1135.700
  H      229.946    -382.732    1134.693
  H      227.026    -383.917    1136.619
  H      227.824    -381.254    1135.301
  H      225.607    -381.329    1134.242
  H      225.862    -384.042    1133.588
  H      226.464    -382.119    1132.038
  H      228.055    -382.033    1132.846
  P      223.590    -382.010    1136.016
  C      222.008    -382.235    1133.974
  O      222.825    -381.351    1134.754
  O      223.917    -381.046    1137.107
  O      222.558    -383.134    1136.527
  H      222.008    -382.758    1137.237
  H      221.556    -381.689    1133.172
  H      221.244    -382.655    1134.594
  H      222.614    -383.020    1133.573

 6  7  8  9  10  11  12  13  14  15  16  26  31  32  33  34  35 0
 6-311+G(2d,p)
 ****
 36  37 0
 6-311+G(2d,p)
 ****
 1  2  3  4  5  17  18  19  20  21  22  23  24  25 0
 3-21G
 ****
 27  28  29  30  38  39  40  41  42  43  44  45 0
 3-21G
 ****


