%nproc=1
%NoSave
%Mem=1900MB
#P OB98/GEN NMR

erre ene a

0 1
  C      401.651    -364.651    -642.451
  O      401.485    -365.781    -643.277
  H      402.627    -364.713    -641.961
  H      400.868    -364.618    -641.687
  H      401.615    -363.737    -643.055
  P      400.063    -365.933    -644.011
  C      401.107    -366.866    -646.214
  O      400.424    -365.797    -645.574
  C      401.654    -366.399    -647.561
  O      402.740    -365.468    -647.382
  C      402.223    -367.521    -648.436
  O      401.226    -368.296    -649.084
  C      403.028    -366.695    -649.426
  O      402.132    -366.060    -650.365
  C      403.675    -365.656    -648.482
  N      404.981    -366.081    -647.979
  C      406.106    -365.431    -648.515
  O      405.974    -364.550    -649.369
  N      407.361    -365.815    -648.090
  C      407.477    -366.750    -647.200
  N      408.749    -367.088    -646.828
  C      406.331    -367.452    -646.603
  C      405.126    -367.066    -647.028
  O      399.333    -364.542    -643.697
  O      399.270    -367.149    -643.652
  H      401.388    -365.694    -649.843
  H      398.499    -364.470    -644.228
  H      406.483    -368.230    -645.867
  H      404.227    -367.542    -646.630
  H      403.784    -364.687    -648.984
  H      403.728    -367.287    -650.007
  H      402.905    -368.157    -647.866
  H      400.842    -365.864    -648.088
  H      409.516    -366.628    -647.300
  H      400.395    -367.686    -646.352
  H      408.957    -367.898    -646.257
  H      401.940    -367.217    -645.589
  P      400.719    -369.616    -648.324
  C      398.218    -369.163    -648.934
  O      399.185    -369.354    -647.901
  O      401.492    -369.559    -646.930
  O      400.969    -370.900    -649.053
  H      401.706    -370.459    -646.606
  H      397.255    -369.002    -648.496
  H      398.185    -370.032    -649.557
  H      398.489    -368.312    -649.523

 6  7  8  9  10  11  12  13  14  15  16  26  30  31  32  33  35 0
 6-311+G(2d,p)
 ****
 37  38 0
 6-311+G(2d,p)
 ****
 1  2  3  4  5  17  18  19  20  21  22  23  24  25 0
 3-21G
 ****
 27  28  29  34  36  39  40  41  42  43  44  45  46 0
 3-21G
 ****


