%nproc=1
%NoSave
%Mem=1900MB
#P OB98/GEN NMR

erre ene a

0 1
  C     -164.789     246.354     379.224
  O     -163.537     246.962     378.896
  P     -162.889     247.903     380.031
  C     -161.436     246.052     381.127
  O     -162.500     246.975     381.284
  C     -160.145     246.598     381.734
  O     -160.283     246.887     383.140
  C     -158.964     245.647     381.615
  O     -158.413     245.714     380.311
  C     -158.030     246.176     382.695
  O     -157.233     247.274     382.206
  C     -158.999     246.657     383.783
  N     -156.924     244.836     388.040
  C     -156.381     245.660     387.062
  N     -155.113     246.068     387.273
  N     -157.022     246.042     385.997
  C     -158.283     245.547     385.925
  C     -158.938     244.746     386.832
  C     -158.217     244.334     388.013
  O     -158.660     243.626     388.908
  N     -160.236     244.498     386.444
  C     -160.312     245.042     385.240
  N     -159.180     245.750     384.903
  O     -164.143     248.762     380.558
  O     -161.800     248.784     379.518
  H     -156.519     246.916     381.636
  H     -164.050     249.690     380.269
  H     -156.382     244.570     388.840
  H     -161.172     244.987     384.586
  H     -158.683     247.613     384.216
  H     -157.318     245.408     383.025
  H     -154.558     245.825     388.076
  H     -159.282     244.627     381.858
  H     -154.697     246.692     386.578
  H     -159.922     247.540     381.218
  H     -161.281     245.840     380.059
  H     -161.725     245.100     381.596
  P     -157.546     244.471     379.796
  C     -159.125     242.404     379.697
  O     -158.170     243.152     380.439
  O     -156.145     244.660     380.563
  O     -157.343     244.428     378.314
  H     -155.408     244.502     379.944
  H     -159.054     241.352     379.982
  H     -158.945     242.494     378.619
  H     -160.119     242.771     379.937
  H     -165.121     245.756     378.401
  H     -165.513     247.115     379.427
  H     -164.670     245.736     380.089

 3  4  5  6  7  8  9  10  11  12  23  26  30  31 0
 6-311+G(2d,p)
 ****
 33  35  36  37  38 0
 6-311+G(2d,p)
 ****
 1  2  13  14  15  16  17  18  19  20  21  22  24  25 0
 3-21G
 ****
 27  28  29  32  34  39  40  41  42  43  44  45  46  47  48  49 0
 3-21G
 ****


