%nproc=1
%NoSave
%Mem=1900MB
#P OB98/GEN NMR

erre ene a

0 1
  C     -140.963      89.591     527.647
  O     -140.221      88.397     527.800
  P     -139.359      88.135     529.127
  C     -137.917      86.676     527.564
  O     -137.917      87.644     528.607
  C     -136.805      86.972     526.553
  O     -137.074      88.198     525.848
  C     -135.427      87.140     527.178
  O     -134.874      85.885     527.518
  C     -134.695      87.880     526.068
  O     -134.209      86.967     525.066
  C     -135.801      88.784     525.489
  N     -135.694      90.165     525.946
  C     -135.253      91.091     524.993
  O     -134.947      90.718     523.856
  N     -135.117      92.406     525.369
  C     -135.379      92.757     526.591
  N     -135.212      94.072     526.904
  C     -135.815      91.803     527.632
  C     -135.951      90.539     527.246
  O     -140.009      87.258     530.144
  O     -139.060      89.618     529.664
  H     -133.486      86.460     525.484
  H     -139.866      90.021     530.071
  H     -136.012      92.140     528.639
  H     -136.266      89.772     527.944
  H     -135.766      88.784     524.388
  H     -133.824      88.435     526.444
  H     -135.495      87.786     528.061
  H     -136.790      86.155     525.817
  H     -134.881      94.686     526.168
  H     -138.885      86.717     527.055
  H     -135.351      94.442     527.832
  H     -137.792      85.677     527.993
  P     -134.341      85.625     529.007
  C     -133.161      83.439     528.348
  O     -133.013      84.733     528.900
  O     -135.364      85.132     529.976
  O     -133.775      87.055     529.457
  H     -134.071      87.241     530.370
  H     -132.182      83.079     528.026
  H     -133.838      83.455     527.486
  H     -133.560      82.762     529.114
  H     -141.467      89.579     526.703
  H     -140.301      90.430     527.687
  H     -141.683      89.667     528.435

 3  4  5  6  7  8  9  10  11  12  13  23  27  28  29  30  32 0
 6-311+G(2d,p)
 ****
 34  35 0
 6-311+G(2d,p)
 ****
 1  2  14  15  16  17  18  19  20  21  22  24  25  26 0
 3-21G
 ****
 31  33  36  37  38  39  40  41  42  43  44  45  46 0
 3-21G
 ****


