%nproc=1
%NoSave
%Mem=1900MB
#P OB98/GEN NMR

erre ene a

0 1
  C      776.542    -611.797       1.328
  O      775.135    -611.883       1.210
  H      776.956    -612.764       1.622
  H      776.958    -611.511       0.353
  H      776.808    -611.030       2.060
  P      774.326    -612.324       2.525
  C      774.546    -614.792       1.761
  O      774.707    -613.861       2.820
  C      774.795    -616.215       2.282
  O      776.201    -616.349       2.594
  C      773.984    -616.588       3.526
  O      773.190    -617.754       3.272
  C      775.040    -616.954       4.565
  O      774.685    -618.093       5.359
  C      776.283    -617.220       3.724
  N      780.627    -619.315       5.395
  C      779.809    -619.647       4.363
  N      778.730    -618.990       3.905
  C      778.529    -617.858       4.609
  C      779.287    -617.382       5.666
  C      780.366    -618.177       6.069
  N      781.165    -617.863       7.148
  N      778.765    -616.185       6.141
  C      777.689    -615.973       5.413
  N      777.489    -616.974       4.489
  O      772.804    -612.413       2.016
  O      774.461    -611.403       3.693
  H      773.850    -617.869       5.812
  H      772.222    -611.943       2.638
  H      780.062    -620.575       3.847
  H      776.994    -615.153       5.544
  H      776.327    -618.253       3.350
  H      775.188    -616.107       5.237
  H      773.348    -615.775       3.886
  H      774.587    -616.918       1.461
  H      775.263    -614.576       0.964
  H      781.853    -618.549       7.445
  H      780.919    -617.074       7.727
  H      773.536    -614.696       1.360
  P      771.596    -617.542       3.236
  C      771.043    -618.036       5.741
  O      771.144    -617.065       4.707
  O      771.026    -619.034       3.144
  O      771.121    -616.691       2.109
  H      770.159    -619.042       2.713
  H      770.734    -617.560       6.648
  H      771.996    -618.501       5.888
  H      770.323    -618.778       5.464

 6  7  8  9  10  11  12  13  14  15  25  28  32  33  34  35 0
 6-311+G(2d,p)
 ****
 36  39  40 0
 6-311+G(2d,p)
 ****
 1  2  3  4  5  16  17  18  19  20  21  22  23  24 0
 3-21G
 ****
 26  27  29  30  31  37  38  41  42  43  44  45  46  47  48 0
 3-21G
 ****


