%nproc=1
%NoSave
%Mem=1900MB
#P OB98/GEN NMR

erre ene a

0 1
  C        9.179     325.522      38.182
  O        8.593     325.859      36.933
  P        8.614     324.750      35.779
  C       10.510     323.303      34.720
  O       10.149     324.503      35.381
  C       11.671     323.572      33.758
  O       11.211     324.314      32.612
  C       12.789     324.401      34.371
  O       13.625     323.617      35.200
  C       13.494     324.933      33.127
  O       14.425     323.965      32.609
  C       12.316     325.130      32.151
  N       11.931     326.533      32.015
  C       12.061     327.079      30.738
  O       12.493     326.434      29.775
  N       11.713     328.391      30.608
  C       11.312     329.224      31.622
  O       11.068     330.414      31.454
  C       11.226     328.597      32.954
  C       11.535     327.313      33.090
  O        8.007     325.509      34.508
  O        7.857     323.504      36.098
  H       14.686     324.278      31.721
  H        7.477     324.887      33.972
  H       11.775     328.801      29.690
  H       10.905     329.228      33.778
  H       11.488     326.836      34.058
  H       12.578     324.746      31.155
  H       14.062     325.846      33.333
  H       12.364     325.252      34.929
  H       12.063     322.602      33.405
  H        9.648     322.924      34.166
  H       10.797     322.555      35.468
  P       13.844     324.137      36.714
  C       14.759     326.372      37.715
  O       14.453     325.607      36.560
  O       15.074     323.214      37.163
  O       12.618     324.006      37.555
  H       15.673     323.007      36.426
  H       15.128     325.736      38.525
  H       13.865     326.907      38.043
  H       15.529     327.100      37.457
  H        9.093     326.352      38.852
  H       10.213     325.285      38.039
  H        8.673     324.675      38.597

 3  4  5  6  7  8  9  10  11  12  13  23  28  29  30  31  32 0
 6-311+G(2d,p)
 ****
 33  34 0
 6-311+G(2d,p)
 ****
 1  2  14  15  16  17  18  19  20  21  22  24  25  26 0
 3-21G
 ****
 27  35  36  37  38  39  40  41  42  43  44  45 0
 3-21G
 ****


