%nproc=1
%NoSave
%Mem=1900MB
#P OB98/GEN NMR

erre ene a

0 1
  C       20.513     -50.098     -91.671
  O       21.546     -49.121     -91.816
  P       22.251     -48.631     -90.459
  C       24.428     -47.886     -91.651
  O       23.326     -47.501     -90.842
  C       24.084     -47.803     -93.143
  O       23.897     -46.417     -93.559
  C       25.157     -48.402     -94.059
  O       24.474     -48.989     -95.175
  C       25.917     -47.177     -94.533
  O       26.672     -47.450     -95.709
  C       24.755     -46.199     -94.701
  N       23.789     -41.743     -96.869
  C       23.227     -42.983     -97.098
  N       22.224     -43.035     -98.000
  N       23.612     -44.076     -96.491
  C       24.598     -43.865     -95.584
  C       25.225     -42.685     -95.259
  C       24.810     -41.488     -95.960
  O       25.272     -40.366     -95.793
  N       26.157     -42.868     -94.264
  C       26.134     -44.173     -94.048
  N       25.170     -44.812     -94.780
  O       23.148     -49.890     -90.041
  O       21.286     -48.255     -89.384
  H       26.056     -47.823     -96.376
  H       22.703     -50.402     -89.341
  H       23.466     -40.936     -97.376
  H       26.772     -44.699     -93.357
  H       24.174     -46.398     -95.612
  H       26.606     -46.834     -93.752
  H       21.847     -42.225     -98.466
  H       25.801     -49.142     -93.577
  H       21.767     -43.925     -98.156
  H       23.130     -48.322     -93.303
  H       24.727     -48.910     -91.412
  H       25.288     -47.254     -91.408
  P       24.909     -50.461     -95.630
  C       22.812     -51.967     -95.789
  O       23.692     -51.087     -96.458
  O       24.889     -51.285     -94.254
  O       26.253     -50.541     -96.278
  H       25.635     -51.912     -94.239
  H       21.839     -51.933     -96.283
  H       22.683     -51.694     -94.738
  H       23.203     -52.986     -95.850
  H       20.119     -50.347     -92.634
  H       19.731     -49.702     -91.058
  H       20.915     -50.977     -91.212

 3  4  5  6  7  8  9  10  11  12  23  26  30  31 0
 6-311+G(2d,p)
 ****
 33  35  36  37  38 0
 6-311+G(2d,p)
 ****
 1  2  13  14  15  16  17  18  19  20  21  22  24  25 0
 3-21G
 ****
 27  28  29  32  34  39  40  41  42  43  44  45  46  47  48  49 0
 3-21G
 ****


