%nproc=1
%NoSave
%Mem=1900MB
#P OB98/GEN NMR

erre ene a

0 1
  C      156.321    -223.198    -341.260
  O      157.710    -222.948    -341.322
  P      158.756    -224.134    -341.568
  C      159.565    -224.382    -339.132
  O      158.831    -224.977    -340.198
  C      159.882    -225.427    -338.054
  O      160.794    -224.831    -337.077
  C      158.626    -225.908    -337.299
  O      158.465    -227.329    -337.262
  C      158.768    -225.228    -335.945
  O      158.023    -225.849    -334.911
  C      160.292    -225.192    -335.774
  N      160.718    -224.259    -334.733
  C      160.581    -224.676    -333.411
  O      160.136    -225.769    -333.071
  N      160.913    -223.758    -332.455
  C      161.254    -222.454    -332.679
  O      161.448    -221.656    -331.770
  C      161.347    -222.061    -334.098
  C      161.104    -222.968    -335.047
  O      160.084    -223.717    -342.103
  O      157.952    -225.136    -342.527
  H      157.079    -225.801    -335.153
  H      157.120    -225.484    -342.156
  H      160.817    -224.044    -331.496
  H      161.604    -221.032    -334.304
  H      161.161    -222.709    -336.100
  H      160.693    -226.182    -335.535
  H      158.389    -224.207    -336.043
  H      157.710    -225.552    -337.788
  H      160.394    -226.263    -338.542
  H      158.963    -223.587    -338.693
  H      160.482    -223.923    -339.521
  P      157.069    -228.093    -337.063
  C      157.611    -228.783    -334.616
  O      156.732    -228.118    -335.497
  O      156.964    -229.415    -337.753
  O      155.993    -227.062    -337.654
  H      155.226    -227.552    -338.001
  H      157.042    -229.144    -333.757
  H      158.367    -228.076    -334.255
  H      158.102    -229.634    -335.095
  H      155.800    -222.279    -341.090
  H      156.116    -223.877    -340.459
  H      155.994    -223.627    -342.184

 3  4  5  6  7  8  9  10  11  12  13  23  28  29  30  31  32 0
 6-311+G(2d,p)
 ****
 33  34 0
 6-311+G(2d,p)
 ****
 1  2  14  15  16  17  18  19  20  21  22  24  25  26  27 0
 3-21G
 ****
 35  36  37  38  39  40  41  42  43  44  45 0
 3-21G
 ****


