%nproc=1
%NoSave
%Mem=1900MB
#P OB98/GEN NMR

erre ene a

0 1
  C     -982.538    -857.156     593.097
  O     -982.827    -856.183     594.083
  P     -982.390    -854.657     593.851
  C     -984.673    -853.906     592.933
  O     -983.701    -853.738     593.960
  C     -985.682    -852.767     592.971
  O     -986.517    -852.854     594.151
  C     -985.062    -851.383     593.012
  O     -984.501    -851.013     591.772
  C     -986.251    -850.541     593.462
  O     -987.113    -850.256     592.339
  C     -986.969    -851.513     594.441
  N     -986.726    -851.150     595.834
  C     -987.113    -849.857     596.196
  O     -987.544    -849.062     595.365
  N     -986.990    -849.490     597.520
  C     -986.427    -850.304     598.366
  N     -986.373    -849.909     599.671
  C     -985.858    -851.607     597.971
  C     -986.065    -851.974     596.709
  O     -981.542    -854.409     592.643
  O     -981.584    -854.284     595.197
  H     -980.735    -853.878     594.943
  H     -986.590    -849.688     591.734
  H     -985.337    -852.222     598.708
  H     -985.707    -852.930     596.337
  H     -988.042    -851.505     594.244
  H     -985.949    -849.590     593.895
  H     -984.293    -851.358     593.786
  H     -986.335    -852.874     592.085
  H     -986.798    -849.020     599.902
  H     -985.186    -854.866     593.089
  H     -986.273    -850.578     600.431
  H     -984.163    -853.946     591.962
  P     -983.558    -849.712     591.767
  C     -981.196    -850.718     592.084
  O     -982.135    -850.143     591.182
  O     -983.276    -849.440     593.315
  O     -984.180    -848.510     591.118
  H     -983.249    -848.483     593.483
  H     -980.448    -851.258     591.495
  H     -981.678    -851.416     592.775
  H     -980.692    -849.927     592.639
  H     -982.900    -858.110     593.420
  H     -981.480    -857.208     592.947
  H     -983.015    -856.886     592.178

 3  4  5  6  7  8  9  10  11  12  13  24  27  28  29  30  32 0
 6-311+G(2d,p)
 ****
 34  35 0
 6-311+G(2d,p)
 ****
 1  2  14  15  16  17  18  19  20  21  22  23  25  26 0
 3-21G
 ****
 31  33  36  37  38  39  40  41  42  43  44  45  46 0
 3-21G
 ****


