%nproc=1
%NoSave
%Mem=1900MB
#P OB98/GEN NMR

erre ene a

0 1
  C     -343.675    -397.813     748.099
  O     -343.826    -397.200     749.370
  P     -343.345    -395.673     749.509
  C     -345.629    -394.439     749.183
  O     -344.602    -394.855     750.073
  C     -346.621    -393.545     749.928
  O     -347.598    -394.344     750.622
  C     -345.980    -392.637     750.973
  O     -345.437    -391.487     750.365
  C     -347.170    -392.347     751.886
  O     -348.002    -391.304     751.335
  C     -347.909    -393.696     751.883
  N     -349.296    -395.308     756.475
  C     -349.806    -394.286     755.698
  N     -350.873    -393.625     756.206
  N     -349.326    -393.939     754.531
  C     -348.254    -394.681     754.164
  C     -347.641    -395.708     754.847
  C     -348.219    -396.112     756.107
  O     -347.867    -397.070     756.782
  N     -346.569    -396.199     754.156
  C     -346.544    -395.490     753.048
  N     -347.552    -394.568     752.991
  O     -343.221    -395.195     747.985
  O     -342.081    -395.474     750.277
  H     -347.483    -390.489     751.260
  H     -342.294    -395.234     747.687
  H     -349.721    -395.544     757.356
  H     -345.827    -395.624     752.249
  H     -349.001    -393.567     751.927
  H     -346.857    -392.008     752.878
  H     -351.288    -393.820     757.105
  H     -345.213    -393.184     751.534
  H     -351.258    -392.863     755.656
  H     -347.154    -392.942     749.179
  H     -346.153    -395.317     748.803
  H     -345.174    -393.904     748.345
  P     -344.483    -390.554     751.260
  C     -342.320    -391.733     750.435
  O     -343.050    -390.524     750.558
  O     -344.242    -391.441     752.583
  O     -345.058    -389.225     751.605
  H     -344.198    -390.855     753.366
  H     -341.694    -391.675     749.541
  H     -342.988    -392.600     750.349
  H     -341.677    -391.862     751.307
  H     -344.031    -398.821     748.145
  H     -342.641    -397.812     747.823
  H     -344.239    -397.268     747.371

 3  4  5  6  7  8  9  10  11  12  23  26  30  31 0
 6-311+G(2d,p)
 ****
 33  35  36  37  38 0
 6-311+G(2d,p)
 ****
 1  2  13  14  15  16  17  18  19  20  21  22  24  25 0
 3-21G
 ****
 27  28  29  32  34  39  40  41  42  43  44  45  46  47  48  49 0
 3-21G
 ****


