%nproc=1
%NoSave
%Mem=1900MB
#P OB98/GEN NMR

erre ene a

0 1
  C      -10.518     210.427    -320.643
  O       -9.801     211.597    -320.983
  H      -10.893     210.532    -319.621
  H       -9.866     209.551    -320.687
  H      -11.369     210.294    -321.317
  P       -9.079     211.664    -322.411
  C      -11.176     212.700    -323.518
  O      -10.243     211.624    -323.510
  C      -10.992     213.560    -324.766
  O       -9.788     214.345    -324.663
  C      -10.858     212.762    -326.059
  O      -12.114     212.262    -326.468
  C      -10.244     213.813    -326.969
  O      -11.241     214.731    -327.444
  C       -9.265     214.520    -325.999
  N       -7.895     214.026    -326.090
  C       -7.102     214.592    -327.092
  O       -7.568     215.447    -327.846
  N       -5.805     214.160    -327.223
  C       -5.329     213.278    -326.404
  N       -4.036     212.896    -326.580
  C       -6.122     212.680    -325.311
  C       -7.387     213.085    -325.221
  O       -7.977     210.674    -322.640
  O       -8.546     213.170    -322.502
  H      -10.759     215.416    -327.945
  H       -7.621     213.224    -322.198
  H       -5.680     211.955    -324.645
  H       -8.038     212.696    -324.447
  H       -9.249     215.600    -326.194
  H       -9.773     213.373    -327.849
  H      -10.133     211.953    -325.928
  H      -11.838     214.260    -324.821
  H       -3.523     213.350    -327.333
  H      -10.984     213.296    -322.619
  H       -3.517     212.345    -325.914
  H      -12.202     212.323    -323.468
  P      -12.247     210.865    -327.245
  C      -12.801     209.749    -324.996
  O      -11.969     209.728    -326.145
  O      -11.433     210.751    -328.486
  O      -13.821     210.725    -327.496
  H      -14.103     211.302    -328.247
  H      -12.523     208.951    -324.340
  H      -13.822     209.628    -325.293
  H      -12.685     210.684    -324.489

 6  7  8  9  10  11  12  13  14  15  16  26  30  31  32  33  35 0
 6-311+G(2d,p)
 ****
 37  38 0
 6-311+G(2d,p)
 ****
 1  2  3  4  5  17  18  19  20  21  22  23  24  25 0
 3-21G
 ****
 27  28  29  34  36  39  40  41  42  43  44  45  46 0
 3-21G
 ****


