%nproc=1
%NoSave
%Mem=1900MB
#P OB98/GEN NMR

erre ene a

0 1
  C        1.825     -87.098      41.477
  O        2.973     -87.710      40.923
  P        4.043     -88.415      41.881
  C        5.775     -86.523      41.718
  O        5.499     -87.895      41.455
  C        6.967     -86.394      42.664
  O        6.703     -87.086      43.902
  C        8.256     -87.000      42.123
  O        8.843     -86.156      41.153
  C        9.066     -87.160      43.404
  O        9.690     -85.918      43.767
  C        7.977     -87.530      44.422
  N       10.063     -91.309      47.138
  C       10.429     -90.023      46.956
  N        9.841     -89.085      46.182
  C        8.781     -89.603      45.541
  C        8.308     -90.904      45.599
  C        8.985     -91.779      46.465
  N        8.585     -93.075      46.706
  N        7.214     -91.057      44.767
  C        7.040     -89.875      44.214
  N        7.921     -88.951      44.700
  O        3.912     -89.897      42.005
  O        3.809     -87.706      43.297
  H        8.984     -85.316      44.070
  H        3.548     -88.378      43.956
  H       11.306     -89.701      47.511
  H        6.285     -89.637      43.476
  H        8.123     -87.017      45.379
  H        9.859     -87.908      43.310
  H        8.053     -87.992      41.700
  H        7.107     -85.330      42.894
  H        4.888     -86.075      42.175
  H        9.053     -93.566      47.452
  H        7.634     -93.339      46.460
  H        5.983     -86.008      40.774
  P        8.524     -86.384      39.601
  C       11.020     -85.958      39.193
  O        9.699     -85.675      38.773
  O        7.139     -86.038      39.167
  O        8.828     -87.942      39.381
  H        8.234     -88.294      38.692
  H       11.254     -85.373      40.086
  H       11.710     -85.678      38.394
  H       11.141     -87.023      39.410
  H        1.229     -86.682      40.692
  H        2.124     -86.320      42.148
  H        1.253     -87.829      42.010

 3  4  5  6  7  8  9  10  11  12  22  25  29  30  31  32 0
 6-311+G(2d,p)
 ****
 33  36  37 0
 6-311+G(2d,p)
 ****
 1  2  13  14  15  16  17  18  19  20  21  23  24  26 0
 3-21G
 ****
 27  28  34  35  38  39  40  41  42  43  44  45  46  47  48 0
 3-21G
 ****


