%nproc=1
%NoSave
%Mem=1900MB
#P OB98/GEN NMR

erre ene a

0 1
  C       94.392     -41.854     381.107
  O       95.041     -40.932     380.254
  H       94.892     -41.843     382.079
  H       94.461     -42.864     380.693
  H       93.343     -41.580     381.250
  P       94.440     -40.678     378.790
  C       96.241     -42.280     377.895
  O       95.615     -41.015     377.745
  C       96.855     -42.735     376.572
  O       95.787     -42.967     375.616
  C       97.822     -41.716     375.960
  O       98.903     -42.424     375.353
  C       96.989     -41.042     374.885
  O       97.789     -40.515     373.828
  C       96.067     -42.177     374.445
  N       93.506     -41.635     370.124
  C       94.702     -42.276     370.376
  N       95.327     -42.837     369.319
  N       95.243     -42.357     371.564
  C       94.504     -41.765     372.533
  C       93.308     -41.100     372.410
  C       92.725     -41.004     371.088
  O       91.675     -40.438     370.802
  N       92.883     -40.612     373.622
  C       93.824     -40.980     374.474
  N       94.833     -41.672     373.859
  O       93.794     -39.346     378.582
  O       93.406     -41.880     378.580
  H       98.333     -41.257     373.483
  H       92.492     -41.580     378.740
  H       93.140     -41.593     369.188
  H       93.825     -40.766     375.534
  H       96.533     -42.827     373.691
  H       96.413     -40.217     375.326
  H       94.962     -42.827     368.378
  H       98.208     -41.000     376.691
  H       96.196     -43.331     369.484
  H       97.352     -43.700     376.731
  H       95.484     -43.006     378.218
  H       97.017     -42.214     378.665
  P       99.993     -43.125     376.297
  C      101.337     -40.938     376.520
  O      101.372     -42.314     376.159
  O      100.107     -44.610     376.162
  O       99.498     -42.717     377.770
  H       99.756     -43.422     378.394
  H      102.308     -40.509     376.386
  H      101.044     -40.846     377.545
  H      100.632     -40.424     375.900

 6  7  8  9  10  11  12  13  14  15  26  29  33  34 0
 6-311+G(2d,p)
 ****
 36  38  39  40  41 0
 6-311+G(2d,p)
 ****
 1  2  3  4  5  16  17  18  19  20  21  22  23  24  25 0
 3-21G
 ****
 27  28  30  31  32  35  37  42  43  44  45  46  47 0
 3-21G
 ****
 48  49 0
 3-21G
 ****


