%nproc=1
%NoSave
%Mem=1900MB
#P OB98/GEN NMR

erre ene a

0 1
  C      200.983     117.252     111.162
  O      200.985     115.817     111.069
  P      199.729     115.075     110.391
  C      198.996     113.399     112.263
  O      199.617     113.596     111.000
  C      199.216     111.960     112.738
  O      200.375     111.882     113.600
  C      198.070     111.390     113.564
  O      196.973     111.006     112.752
  C      198.753     110.213     114.255
  O      198.795     109.063     113.389
  C      200.172     110.766     114.495
  N      200.396     111.150     115.888
  C      200.883     110.157     116.733
  O      201.065     108.997     116.372
  N      201.121     110.537     118.024
  C      200.860     111.767     118.562
  O      201.079     112.042     119.737
  C      200.273     112.752     117.639
  C      200.066     112.403     116.368
  O      200.273     114.784     108.910
  O      198.461     115.864     110.341
  H      198.973     109.400     112.489
  H      199.525     114.752     108.286
  H      201.502     109.841     118.646
  H      200.030     113.731     118.033
  H      199.632     113.119     115.676
  H      200.922     110.017     114.216
  H      198.235     109.908     115.167
  H      197.757     112.117     114.321
  H      199.406     111.334     111.858
  H      197.922     113.585     112.171
  H      199.415     114.112     112.981
  P      195.526     111.540     113.202
  C      194.789     109.044     113.487
  O      194.524     110.318     112.934
  O      195.213     112.593     112.039
  O      195.514     112.110     114.582
  H      195.592     112.321     111.185
  H      195.284     109.123     114.458
  H      195.424     108.477     112.802
  H      193.842     108.511     113.616
  H      201.885     117.580     111.635
  H      200.141     117.571     111.740
  H      200.922     117.673     110.180

 3  4  5  6  7  8  9  10  11  12  13  23  28  29  30  31  32 0
 6-311+G(2d,p)
 ****
 33  34 0
 6-311+G(2d,p)
 ****
 1  2  14  15  16  17  18  19  20  21  22  24  25  26 0
 3-21G
 ****
 27  35  36  37  38  39  40  41  42  43  44  45 0
 3-21G
 ****


