%nproc=1
%NoSave
%Mem=1900MB
#P OB98/GEN NMR

erre ene a

0 1
  C       -4.851    -376.251    -328.097
  O       -3.998    -376.819    -329.104
  P       -2.549    -377.417    -328.744
  C       -1.185    -376.716    -330.806
  O       -1.754    -377.811    -330.085
  C       -0.758    -377.089    -332.236
  O        0.344    -378.051    -332.218
  C       -1.862    -377.718    -333.106
  O       -1.572    -377.321    -334.452
  C       -1.608    -379.208    -332.922
  O       -2.210    -380.006    -333.929
  C       -0.085    -379.235    -332.915
  N        1.127    -384.169    -333.621
  C        0.798    -383.186    -334.496
  N        0.526    -381.897    -334.239
  C        0.661    -381.624    -332.922
  C        1.003    -382.514    -331.911
  C        1.238    -383.846    -332.305
  N        1.523    -384.858    -331.410
  N        1.012    -381.882    -330.683
  C        0.671    -380.634    -330.940
  N        0.454    -380.424    -332.285
  O       -2.576    -378.504    -327.712
  O       -1.731    -376.162    -328.178
  H       -3.108    -379.663    -334.101
  H       -1.254    -376.420    -327.372
  H        0.730    -383.491    -335.536
  H        0.554    -379.847    -330.215
  H        0.318    -379.183    -333.939
  H       -2.032    -379.527    -331.954
  H       -2.863    -377.407    -332.818
  H       -0.366    -376.182    -332.709
  H       -0.319    -376.345    -330.250
  H        1.579    -385.801    -331.774
  H        1.480    -384.665    -330.426
  H       -1.924    -375.904    -330.852
  P       -2.604    -376.426    -335.309
  C       -2.830    -378.394    -336.945
  O       -2.556    -377.010    -336.809
  O       -2.405    -374.951    -335.195
  O       -4.047    -376.876    -334.788
  H       -4.701    -376.195    -335.025
  H       -1.943    -378.970    -336.644
  H       -3.051    -378.606    -337.997
  H       -3.686    -378.695    -336.327
  H       -5.761    -375.915    -328.548
  H       -4.355    -375.423    -327.635
  H       -5.072    -376.992    -327.357

 3  4  5  6  7  8  9  10  11  12  22  25  29  30  31  32 0
 6-311+G(2d,p)
 ****
 33  36  37 0
 6-311+G(2d,p)
 ****
 1  2  13  14  15  16  17  18  19  20  21  23  24  26 0
 3-21G
 ****
 27  28  34  35  38  39  40  41  42  43  44  45  46  47  48 0
 3-21G
 ****


