%nproc=1
%NoSave
%Mem=1900MB
#P OB98/GEN NMR

erre ene a

0 1
  C      537.905     520.734    -158.717
  O      536.881     520.974    -159.664
  P      537.214     520.920    -161.234
  C      539.305     521.510    -162.604
  O      538.469     521.882    -161.514
  C      540.497     522.457    -162.709
  O      541.457     522.203    -161.645
  C      541.305     522.303    -163.999
  O      540.612     522.844    -165.102
  C      542.592     523.027    -163.621
  O      542.435     524.454    -163.747
  C      542.752     522.632    -162.133
  N      543.757     521.593    -161.945
  C      545.086     522.009    -162.044
  O      545.361     523.169    -162.362
  N      546.083     521.085    -161.791
  C      545.771     519.842    -161.593
  N      546.783     518.986    -161.286
  C      544.382     519.335    -161.644
  C      543.427     520.267    -161.797
  O      536.044     521.148    -162.137
  O      537.824     519.462    -161.458
  H      537.364     519.036    -162.222
  H      543.205     524.852    -163.316
  H      544.174     518.278    -161.525
  H      542.387     519.987    -161.826
  H      543.019     523.510    -161.541
  H      543.427     522.734    -164.264
  H      541.510     521.245    -164.180
  H      540.128     523.490    -162.599
  H      547.721     519.372    -161.242
  H      538.722     521.547    -163.520
  H      546.638     518.104    -160.793
  H      539.645     520.478    -162.466
  P      540.649     521.992    -166.476
  C      542.333     521.766    -168.429
  O      541.871     522.547    -167.353
  O      539.354     522.496    -167.265
  O      540.631     520.511    -166.283
  H      538.958     521.757    -167.753
  H      542.906     522.410    -169.102
  H      541.511     521.308    -168.971
  H      543.014     520.981    -168.040
  H      537.502     520.811    -157.729
  H      538.683     521.457    -158.842
  H      538.304     519.752    -158.864

 3  4  5  6  7  8  9  10  11  12  13  24  27  28  29  30  32 0
 6-311+G(2d,p)
 ****
 34  35 0
 6-311+G(2d,p)
 ****
 1  2  14  15  16  17  18  19  20  21  22  23  25  26 0
 3-21G
 ****
 31  33  36  37  38  39  40  41  42  43  44  45  46 0
 3-21G
 ****


