%nproc=1
%NoSave
%Mem=1900MB
#P OB98/GEN NMR

erre ene a

0 1
  C     -647.866     -82.635     842.062
  O     -649.194     -82.855     841.663
  H     -647.771     -81.604     842.412
  H     -647.193     -82.776     841.207
  H     -647.575     -83.311     842.869
  P     -649.684     -84.359     841.377
  C     -651.862     -83.463     842.453
  O     -651.285     -84.351     841.488
  C     -652.834     -84.209     843.372
  O     -653.962     -84.688     842.581
  C     -652.208     -85.432     844.061
  O     -652.866     -85.578     845.342
  C     -652.614     -86.566     843.134
  O     -652.507     -87.811     843.764
  C     -654.033     -86.114     842.750
  N     -654.523     -86.784     841.543
  C     -654.560     -88.178     841.580
  O     -654.160     -88.841     842.556
  N     -655.001     -88.797     840.448
  C     -655.360     -88.177     839.286
  O     -655.724     -88.782     838.287
  C     -655.266     -86.710     839.289
  C     -654.858     -86.093     840.391
  O     -649.007     -85.425     842.175
  O     -649.452     -84.564     839.801
  H     -651.558     -88.083     843.838
  H     -649.252     -85.498     839.608
  H     -655.043     -89.811     840.456
  H     -655.523     -86.185     838.381
  H     -654.774     -85.003     840.428
  H     -654.741     -86.325     843.562
  H     -651.968     -86.585     842.243
  H     -651.126     -85.353     844.207
  H     -653.233     -83.486     844.108
  H     -652.398     -82.679     841.894
  H     -651.067     -82.998     843.037
  P     -652.283     -84.894     846.674
  C     -654.799     -84.561     847.167
  O     -653.500     -84.731     847.731
  O     -651.497     -83.650     846.439
  O     -651.376     -86.024     847.346
  H     -650.660     -85.594     847.870
  H     -655.519     -84.464     847.953
  H     -655.040     -85.412     846.565
  H     -654.812     -83.679     846.561

 6  7  8  9  10  11  12  13  14  15  16  26  31  32  33  34  35 0
 6-311+G(2d,p)
 ****
 36  37 0
 6-311+G(2d,p)
 ****
 1  2  3  4  5  17  18  19  20  21  22  23  24  25 0
 3-21G
 ****
 27  28  29  30  38  39  40  41  42  43  44  45 0
 3-21G
 ****


