%nproc=1
%NoSave
%Mem=1900MB
#P OB98/GEN NMR

erre ene a

0 1
  C      209.956      87.045    -210.754
  O      210.382      86.090    -209.796
  P      210.998      86.641    -208.419
  C      212.578      84.586    -208.173
  O      212.464      85.998    -208.292
  C      213.939      84.122    -208.687
  O      214.123      84.504    -210.063
  C      215.124      84.722    -207.942
  O      215.394      84.048    -206.723
  C      216.245      84.483    -208.939
  O      216.706      83.121    -208.849
  C      215.540      84.720    -210.281
  N      218.103      87.487    -213.653
  C      217.993      86.117    -213.538
  N      218.715      85.381    -214.408
  N      217.240      85.519    -212.651
  C      216.581      86.384    -211.841
  C      216.607      87.759    -211.859
  C      217.454      88.408    -212.838
  O      217.635      89.615    -212.956
  N      215.800      88.288    -210.890
  C      215.280      87.241    -210.283
  N      215.759      86.061    -210.796
  O      210.160      85.863    -207.302
  O      210.924      88.120    -208.250
  H      217.312      82.980    -209.603
  H      210.256      86.310    -206.439
  H      218.701      87.900    -214.349
  H      214.575      87.286    -209.463
  H      215.865      84.009    -211.046
  H      217.116      85.124    -208.763
  H      219.364      85.778    -215.074
  H      214.994      85.800    -207.792
  H      218.702      84.372    -214.306
  H      213.966      83.025    -208.634
  H      211.785      84.113    -208.756
  H      212.451      84.302    -207.122
  P      215.308      84.926    -205.382
  C      216.488      83.092    -203.966
  O      216.519      84.414    -204.463
  O      214.006      84.348    -204.654
  O      215.227      86.398    -205.607
  H      213.609      85.025    -204.072
  H      217.486      82.830    -203.601
  H      216.207      82.385    -204.751
  H      215.777      83.024    -203.137
  H      209.571      86.539    -211.615
  H      210.786      87.657    -211.041
  H      209.190      87.660    -210.329

 3  4  5  6  7  8  9  10  11  12  23  26  30  31 0
 6-311+G(2d,p)
 ****
 33  35  36  37  38 0
 6-311+G(2d,p)
 ****
 1  2  13  14  15  16  17  18  19  20  21  22  24  25 0
 3-21G
 ****
 27  28  29  32  34  39  40  41  42  43  44  45  46  47  48  49 0
 3-21G
 ****


