%nproc=1
%NoSave
%Mem=1900MB
#P OB98/GEN NMR

erre ene a

0 1
  C      261.449     800.375      50.237
  O      261.968     801.475      49.491
  P      263.549     801.490      49.174
  C      263.168     803.806      48.041
  O      263.927     803.040      48.978
  C      263.094     805.266      48.469
  O      262.221     805.416      49.596
  C      264.434     805.869      48.898
  O      265.214     806.278      47.786
  C      263.967     807.078      49.692
  O      263.584     808.142      48.795
  C      262.711     806.532      50.401
  N      261.406     807.042      55.316
  C      260.997     807.695      54.206
  N      261.412     807.505      52.929
  C      262.356     806.551      52.864
  C      262.890     805.821      53.917
  C      262.363     806.082      55.200
  N      262.756     805.399      56.331
  N      263.839     804.925      53.476
  C      263.865     805.106      52.165
  N      262.978     806.069      51.755
  O      263.624     800.902      47.694
  O      264.387     800.722      50.134
  H      262.920     807.765      48.191
  H      264.518     800.526      47.521
  H      260.266     808.471      54.353
  H      264.508     804.568      51.474
  H      261.901     807.264      50.456
  H      264.726     807.474      50.360
  H      264.977     805.172      49.562
  H      262.666     805.840      47.621
  H      262.147     803.406      47.979
  H      262.206     805.513      57.166
  H      263.313     804.560      56.210
  H      263.631     803.715      47.049
  P      266.343     805.246      47.280
  C      267.717     807.402      46.848
  O      267.714     806.060      47.308
  O      266.015     805.085      45.715
  O      266.332     803.936      47.997
  H      266.330     804.221      45.387
  H      268.624     807.906      47.224
  H      266.851     807.950      47.218
  H      267.732     807.425      45.770
  H      260.395     800.500      50.369
  H      261.927     800.336      51.194
  H      261.637     799.465      49.707

 3  4  5  6  7  8  9  10  11  12  22  25  29  30  31  32 0
 6-311+G(2d,p)
 ****
 33  36  37 0
 6-311+G(2d,p)
 ****
 1  2  13  14  15  16  17  18  19  20  21  23  24  26 0
 3-21G
 ****
 27  28  34  35  38  39  40  41  42  43  44  45  46  47  48 0
 3-21G
 ****


