%nproc=1
%NoSave
%Mem=1900MB
#P OB98/GEN NMR

erre ene a

0 1
  C      425.555    -235.419     -57.495
  O      425.994    -236.217     -58.582
  H      425.056    -234.529     -57.888
  H      426.404    -235.100     -56.880
  H      424.844    -235.980     -56.878
  P      426.893    -237.502     -58.266
  C      429.439    -237.175     -58.627
  O      428.314    -236.930     -57.787
  C      429.513    -236.122     -59.727
  O      429.311    -234.805     -59.175
  C      430.869    -236.075     -60.424
  O      431.012    -237.156     -61.326
  C      430.819    -234.700     -61.058
  O      430.051    -234.707     -62.267
  C      430.109    -233.880     -59.951
  N      431.039    -233.141     -59.102
  C      431.435    -231.882     -59.568
  O      430.999    -231.446     -60.635
  N      432.334    -231.163     -58.819
  C      432.783    -231.640     -57.702
  N      433.672    -230.875     -57.015
  C      432.383    -232.964     -57.171
  C      431.516    -233.652     -57.915
  O      426.976    -238.549     -59.339
  O      426.261    -238.084     -56.911
  H      430.528    -235.306     -62.878
  H      425.551    -238.723     -57.112
  H      432.778    -233.317     -56.230
  H      431.170    -234.627     -57.593
  H      429.406    -233.160     -60.400
  H      431.817    -234.329     -61.302
  H      431.676    -236.081     -59.681
  H      428.705    -236.315     -60.448
  H      433.932    -229.983     -57.425
  H      429.302    -238.170     -59.067
  H      434.022    -231.108     -56.093
  H      430.365    -237.183     -58.041
  P      432.461    -237.610     -61.839
  C      432.393    -237.395     -64.408
  O      432.727    -236.758     -63.179
  O      432.665    -239.080     -61.964
  O      433.449    -236.915     -60.780
  H      433.437    -237.387     -59.910
  H      432.612    -236.736     -65.222
  H      431.350    -237.635     -64.414
  H      432.966    -238.293     -64.512

 6  7  8  9  10  11  12  13  14  15  16  26  30  31  32  33  35 0
 6-311+G(2d,p)
 ****
 37  38 0
 6-311+G(2d,p)
 ****
 1  2  3  4  5  17  18  19  20  21  22  23  24  25 0
 3-21G
 ****
 27  28  29  34  36  39  40  41  42  43  44  45  46 0
 3-21G
 ****


