%nproc=1
%NoSave
%Mem=1900MB
#P OB98/GEN NMR

erre ene a

0 1
  C      -20.559      45.683      30.623
  O      -21.615      44.804      30.247
  P      -21.294      43.243      30.096
  C      -21.395      42.862      27.479
  O      -20.641      42.959      28.667
  C      -20.482      42.385      26.338
  O      -19.571      43.437      25.952
  C      -19.634      41.173      26.710
  O      -20.322      39.955      26.492
  C      -18.422      41.353      25.819
  O      -18.725      40.940      24.473
  C      -18.225      42.886      25.882
  N      -17.429      43.440      26.998
  C      -16.352      44.281      26.730
  O      -15.994      44.608      25.602
  N      -15.680      44.764      27.822
  C      -16.062      44.639      29.125
  O      -15.454      45.144      30.059
  C      -17.290      43.868      29.346
  C      -17.897      43.305      28.298
  O      -22.737      42.566      29.998
  O      -20.481      42.669      31.214
  H      -17.885      40.921      23.982
  H      -22.894      41.986      30.767
  H      -14.854      45.316      27.646
  H      -17.657      43.784      30.360
  H      -18.807      42.731      28.452
  H      -17.768      43.254      24.956
  H      -17.594      40.730      26.147
  H      -19.300      41.250      27.749
  H      -21.110      42.147      25.470
  H      -21.842      43.824      27.221
  H      -22.220      42.157      27.624
  P      -21.181      39.300      27.674
  C      -19.166      38.208      28.824
  O      -20.180      39.189      28.924
  O      -21.926      38.056      27.330
  O      -22.164      40.485      28.123
  H      -23.040      40.397      27.682
  H      -18.466      38.341      29.654
  H      -18.622      38.313      27.882
  H      -19.607      37.210      28.890
  H      -20.932      46.684      30.681
  H      -19.778      45.635      29.893
  H      -20.174      45.390      31.577

 3  4  5  6  7  8  9  10  11  12  13  23  28  29  30  31  32 0
 6-311+G(2d,p)
 ****
 33  34 0
 6-311+G(2d,p)
 ****
 1  2  14  15  16  17  18  19  20  21  22  24  25  26  27 0
 3-21G
 ****
 35  36  37  38  39  40  41  42  43  44  45 0
 3-21G
 ****


