%nproc=1
%NoSave
%Mem=1900MB
#P OB98/GEN NMR

erre ene a

0 1
  C      130.394     296.429     -28.705
  O      131.107     297.649     -28.745
  H      131.015     295.645     -29.144
  H      129.468     296.507     -29.283
  H      130.164     296.155     -27.671
  P      130.399     298.961     -28.159
  C      128.552     298.857     -29.961
  O      128.855     298.848     -28.571
  C      127.362     299.770     -30.233
  O      126.130     299.106     -29.892
  C      127.389     301.075     -29.436
  O      128.246     302.017     -30.058
  C      125.922     301.466     -29.501
  O      125.622     302.012     -30.799
  C      125.231     300.100     -29.327
  N      121.873     300.386     -25.542
  C      121.834     300.942     -26.805
  N      120.767     301.723     -27.082
  N      122.765     300.769     -27.706
  C      123.805     300.024     -27.260
  C      123.962     299.433     -26.029
  C      122.899     299.586     -25.061
  O      122.884     299.095     -23.934
  N      125.179     298.809     -25.922
  C      125.739     298.989     -27.104
  N      124.951     299.735     -27.948
  O      131.027     300.273     -28.522
  O      130.379     298.720     -26.579
  H      124.736     302.415     -30.733
  H      131.165     299.109     -26.152
  H      121.131     300.573     -24.887
  H      126.707     298.603     -27.398
  H      124.286     300.040     -29.876
  H      125.643     302.213     -28.760
  H      120.185     302.113     -26.351
  H      127.658     300.905     -28.390
  H      120.745     302.182     -27.984
  H      127.333     299.970     -31.312
  H      128.321     297.827     -30.254
  H      129.419     299.198     -30.536
  P      128.906     303.218     -29.217
  C      126.923     304.840     -29.562
  O      127.663     304.048     -28.640
  O      129.907     304.031     -29.964
  O      129.491     302.517     -27.909
  H      130.417     302.187     -28.018
  H      126.127     305.337     -29.047
  H      126.516     304.211     -30.326
  H      127.570     305.568     -30.006

 6  7  8  9  10  11  12  13  14  15  26  29  33  34 0
 6-311+G(2d,p)
 ****
 36  38  39  40  41 0
 6-311+G(2d,p)
 ****
 1  2  3  4  5  16  17  18  19  20  21  22  23  24  25 0
 3-21G
 ****
 27  28  30  31  32  35  37  42  43  44  45  46  47 0
 3-21G
 ****
 48  49 0
 3-21G
 ****


