%nproc=1
%NoSave
%Mem=1900MB
#P OB98/GEN NMR

erre ene a

0 1
  C       10.521     114.895     182.104
  O        9.199     114.947     182.607
  H       10.758     113.857     181.853
  H       11.224     115.243     182.864
  H       10.610     115.505     181.202
  P        8.585     116.411     182.863
  C        6.604     116.373     181.138
  O        7.028     116.292     182.488
  C        5.260     115.665     180.956
  O        5.461     114.239     181.111
  C        4.191     116.099     181.962
  O        2.923     116.123     181.297
  C        4.210     114.990     183.001
  O        2.975     114.901     183.709
  C        4.568     113.768     182.140
  N        5.176     112.695     182.926
  C        4.391     112.130     183.937
  O        3.253     112.553     184.148
  N        4.927     111.136     184.714
  C        6.165     110.778     184.544
  N        6.641     109.798     185.361
  C        7.044     111.382     183.522
  C        6.490     112.315     182.754
  O        9.210     117.241     181.645
  O        8.879     116.970     184.215
  H        3.047     114.163     184.354
  H        9.211     116.758     180.803
  H        8.073     111.061     183.430
  H        7.063     112.807     181.974
  H        3.672     113.370     181.647
  H        5.002     115.178     183.735
  H        4.388     117.071     182.411
  H        4.923     115.825     179.924
  H        6.010     109.424     186.060
  H        7.348     115.917     180.477
  H        7.599     109.482     185.354
  H        6.515     117.431     180.874
  P        1.860     117.258     181.684
  C        2.247     119.356     180.236
  O        1.534     118.136     180.380
  O        2.166     118.042     182.918
  O        0.500     116.419     181.876
  H        0.013     116.801     182.632
  H        1.941     119.843     179.334
  H        3.297     119.153     180.194
  H        2.040     119.991     181.072

 6  7  8  9  10  11  12  13  14  15  16  26  30  31  32  33  35 0
 6-311+G(2d,p)
 ****
 37  38 0
 6-311+G(2d,p)
 ****
 1  2  3  4  5  17  18  19  20  21  22  23  24  25 0
 3-21G
 ****
 27  28  29  34  36  39  40  41  42  43  44  45  46 0
 3-21G
 ****


