%nproc=1
%NoSave
%Mem=1900MB
#P OB98/GEN NMR

erre ene a

0 1
  C      119.526      28.427      80.987
  O      119.406      27.007      80.889
  P      119.763      26.113      82.171
  C      117.663      24.621      82.101
  O      118.389      25.608      82.828
  C      116.780      23.798      83.041
  O      117.564      23.061      84.000
  C      115.827      24.646      83.865
  O      114.752      25.119      83.072
  C      115.441      23.674      84.969
  O      114.398      22.786      84.533
  C      116.752      22.886      85.181
  N      117.470      23.278      86.385
  C      117.402      22.384      87.459
  O      116.731      21.356      87.370
  N      118.084      22.688      88.612
  C      118.766      23.789      88.685
  N      119.423      24.038      89.849
  C      118.852      24.764      87.580
  C      118.181      24.451      86.474
  O      120.742      26.712      83.124
  O      120.345      24.768      81.514
  H      113.629      23.355      84.331
  H      121.000      24.379      82.125
  H      119.439      25.665      87.689
  H      118.188      25.112      85.614
  H      116.542      21.811      85.253
  H      115.070      24.193      85.858
  H      116.369      25.498      84.297
  H      116.210      23.082      82.432
  H      119.338      23.360      90.596
  H      118.363      23.966      81.579
  H      120.019      24.841      89.987
  H      117.063      25.119      81.332
  P      113.898      26.353      83.634
  C      114.050      27.941      81.591
  O      114.437      27.683      82.926
  O      114.426      26.497      85.142
  O      112.417      26.158      83.599
  H      113.697      26.793      85.716
  H      114.225      28.997      81.373
  H      112.990      27.722      81.433
  H      114.654      27.335      80.909
  H      119.253      28.873      80.054
  H      120.537      28.684      81.223
  H      118.877      28.787      81.758

 3  4  5  6  7  8  9  10  11  12  13  23  27  28  29  30  32 0
 6-311+G(2d,p)
 ****
 34  35 0
 6-311+G(2d,p)
 ****
 1  2  14  15  16  17  18  19  20  21  22  24  25  26 0
 3-21G
 ****
 31  33  36  37  38  39  40  41  42  43  44  45  46 0
 3-21G
 ****


