%nproc=1
%NoSave
%Mem=1900MB
#P OB98/GEN NMR

erre ene a

0 1
  C     -134.703     394.041     545.516
  O     -134.399     392.665     545.782
  P     -132.967     392.048     545.390
  C     -133.701     390.991     543.182
  O     -132.853     391.965     543.789
  C     -133.461     390.838     541.669
  O     -132.059     390.618     541.371
  C     -134.242     389.698     540.999
  O     -134.550     390.156     539.682
  C     -133.216     388.576     540.970
  O     -133.548     387.556     540.025
  C     -131.939     389.372     540.656
  N     -130.737     388.635     541.052
  C     -130.118     387.855     540.064
  O     -130.630     387.749     538.945
  N     -128.976     387.172     540.382
  C     -128.538     387.188     541.603
  N     -127.420     386.454     541.857
  C     -129.187     387.923     542.696
  C     -130.260     388.630     542.345
  O     -132.616     390.789     546.108
  O     -131.936     393.226     545.766
  H     -132.891     386.830     540.119
  H     -131.076     392.828     546.021
  H     -128.813     387.893     543.707
  H     -130.819     389.223     543.074
  H     -131.873     389.610     539.586
  H     -133.146     388.101     541.962
  H     -135.157     389.409     541.535
  H     -133.730     391.797     541.203
  H     -127.003     385.937     541.091
  H     -134.747     391.274     543.348
  H     -127.053     386.306     542.793
  H     -133.549     390.026     543.677
  P     -136.051     390.430     539.189
  C     -136.571     388.185     538.037
  O     -136.791     388.999     539.168
  O     -136.173     391.203     537.927
  O     -136.743     391.202     540.414
  H     -137.556     391.637     540.085
  H     -136.939     387.182     538.224
  H     -135.485     388.123     537.800
  H     -137.083     388.609     537.172
  H     -135.697     394.257     545.848
  H     -134.630     394.226     544.465
  H     -134.009     394.667     546.037

 3  4  5  6  7  8  9  10  11  12  13  23  27  28  29  30  32 0
 6-311+G(2d,p)
 ****
 34  35 0
 6-311+G(2d,p)
 ****
 1  2  14  15  16  17  18  19  20  21  22  24  25  26 0
 3-21G
 ****
 31  33  36  37  38  39  40  41  42  43  44  45  46 0
 3-21G
 ****


