%nproc=1
%NoSave
%Mem=1900MB
#P OB98/GEN NMR

erre ene a

0 1
  C      110.028    -984.729      49.402
  O      109.457    -986.010      49.153
  P      110.319    -987.303      49.569
  C      109.893    -987.993      47.104
  O      110.820    -987.945      48.191
  C      110.558    -987.535      45.811
  O      111.164    -986.240      46.015
  C      111.671    -988.434      45.317
  O      111.179    -989.565      44.623
  C      112.424    -987.492      44.381
  O      111.748    -987.457      43.110
  C      112.290    -986.139      45.102
  N      116.124    -982.859      45.428
  C      115.091    -982.924      44.514
  N      115.064    -981.964      43.564
  N      114.170    -983.856      44.524
  C      114.302    -984.726      45.551
  C      115.284    -984.757      46.516
  C      116.323    -983.754      46.467
  O      117.304    -983.681      47.214
  N      115.071    -985.786      47.405
  C      113.946    -986.344      47.006
  N      113.461    -985.752      45.857
  O      109.202    -988.326      50.076
  O      111.364    -987.057      50.606
  H      110.816    -987.242      43.291
  H      109.601    -988.960      50.707
  H      116.793    -982.107      45.389
  H      113.454    -987.167      47.488
  H      112.040    -985.341      44.389
  H      113.454    -987.804      44.199
  H      115.668    -981.152      43.592
  H      112.339    -988.732      46.144
  H      114.295    -981.962      42.907
  H      109.776    -987.427      45.050
  H      109.048    -987.331      47.329
  H      109.516    -989.019      46.999
  P      111.394    -991.001      45.321
  C      113.400    -991.343      43.692
  O      112.923    -991.381      45.033
  O      110.557    -991.997      44.383
  O      110.959    -991.054      46.750
  H      110.274    -992.774      44.898
  H      112.935    -990.516      43.127
  H      113.159    -992.291      43.205
  H      114.471    -991.197      43.707
  H      109.350    -983.967      49.078
  H      110.949    -984.639      48.865
  H      110.214    -984.619      50.450

 3  4  5  6  7  8  9  10  11  12  23  26  30  31  33  0
 6-311+G(2d,p)
 ****
 35  36  37  38 0
 6-311+G(2d,p)
 ****
 1  2  13  14  15  16  17  18  19  20  21  22  24  25  27  28  29 0
 3-21G
 ****
 32  34  39  40  41  42  43  44  45  46  47  48  49 0
 3-21G
 ****


