%nproc=1
%NoSave
%Mem=1900MB
#P OB98/GEN NMR

erre ene a

0 1
  C      171.969    -194.505     -86.667
  O      171.523    -195.864     -86.733
  P      172.612    -197.012     -86.455
  C      172.051    -197.260     -83.907
  O      172.989    -196.876     -84.902
  C      172.781    -197.807     -82.684
  O      173.797    -196.877     -82.235
  C      171.885    -198.041     -81.476
  O      171.081    -199.198     -81.644
  C      172.919    -198.134     -80.363
  O      173.507    -199.444     -80.334
  C      173.968    -197.096     -80.814
  N      173.895    -195.844     -80.068
  C      174.858    -195.671     -79.080
  O      175.711    -196.517     -78.816
  N      174.794    -194.496     -78.384
  C      173.865    -193.512     -78.557
  O      173.863    -192.472     -77.909
  C      172.842    -193.775     -79.581
  C      172.902    -194.910     -80.280
  O      173.882    -196.425     -87.227
  O      172.162    -198.361     -86.902
  H      173.940    -195.457     -87.183
  H      173.891    -199.594     -81.221
  H      175.491    -194.345     -77.671
  H      172.073    -193.027     -79.728
  H      172.154    -195.123     -81.038
  H      174.980    -197.503     -80.690
  H      172.488    -197.947     -79.374
  H      171.243    -197.166     -81.315
  H      173.277    -198.743     -82.973
  H      171.384    -198.030     -84.303
  H      171.438    -196.392     -83.647
  P      169.522    -198.959     -81.951
  C      169.746    -199.395     -84.518
  O      169.427    -198.495     -83.481
  O      169.243    -197.619     -81.122
  O      168.652    -200.111     -81.571
  H      169.942    -196.953     -81.231
  H      169.300    -199.032     -85.448
  H      169.361    -200.397     -84.314
  H      170.832    -199.440     -84.643
  H      171.148    -193.850     -86.871
  H      172.740    -194.347     -87.392
  H      172.352    -194.303     -85.689

 3  4  5  6  7  8  9  10  11  12  13  24  28  29  30  31  32 0
 6-311+G(2d,p)
 ****
 33  34 0
 6-311+G(2d,p)
 ****
 1  2  14  15  16  17  18  19  20  21  22  23  25  26  27 0
 3-21G
 ****
 35  36  37  38  39  40  41  42  43  44  45 0
 3-21G
 ****


