%nproc=1
%NoSave
%Mem=1900MB
#P OB98/GEN NMR

erre ene a

0 1
  C      118.230    -141.581     348.061
  O      119.623    -141.425     348.228
  H      117.955    -142.601     348.341
  H      117.957    -141.421     347.015
  H      117.679    -140.884     348.700
  P      120.264    -139.966     348.063
  C      121.983    -138.561     349.381
  O      121.441    -139.851     349.144
  C      122.108    -138.291     350.887
  O      120.769    -138.292     351.470
  C      122.934    -139.346     351.650
  O      123.545    -138.676     352.762
  C      121.837    -140.291     352.110
  O      122.284    -141.216     353.068
  C      120.784    -139.260     352.542
  N      119.447    -139.792     352.773
  C      118.893    -139.618     354.039
  O      119.449    -139.043     354.974
  N      117.637    -140.140     354.215
  C      116.897    -140.790     353.269
  O      115.764    -141.209     353.477
  C      117.537    -140.949     351.957
  C      118.761    -140.446     351.771
  O      119.297    -138.829     348.059
  O      121.064    -140.061     346.678
  H      120.548    -139.628     345.971
  H      122.317    -140.778     353.945
  H      117.219    -140.021     355.123
  H      116.985    -141.469     351.186
  H      119.255    -140.540     350.809
  H      121.124    -138.737     353.442
  H      121.479    -140.886     351.265
  H      123.707    -139.815     351.036
  H      122.519    -137.285     351.033
  H      121.312    -137.821     348.929
  H      122.964    -138.489     348.905
  P      125.042    -138.098     352.731
  C      125.856    -135.711     353.315
  O      125.117    -136.852     353.739
  O      125.546    -137.791     351.358
  O      125.943    -139.218     353.437
  H      126.857    -139.159     353.104
  H      125.823    -134.961     354.078
  H      125.427    -135.323     352.415
  H      126.873    -135.992     353.134

 6  7  8  9  10  11  12  13  14  15  16  27  31  32  33  34  35 0
 6-311+G(2d,p)
 ****
 36  37 0
 6-311+G(2d,p)
 ****
 1  2  3  4  5  17  18  19  20  21  22  23  24  25 0
 3-21G
 ****
 26  28  29  30  38  39  40  41  42  43  44  45 0
 3-21G
 ****


