%nproc=1
%NoSave
%Mem=1900MB
#P OB98/GEN NMR

erre ene a

0 1
  C     -127.339    -258.552    -202.223
  O     -126.687    -258.442    -200.966
  P     -125.295    -257.640    -200.920
  C     -125.484    -256.554    -198.571
  O     -125.565    -256.367    -199.979
  C     -126.871    -256.501    -197.945
  O     -127.656    -257.621    -198.399
  C     -126.885    -256.586    -196.426
  O     -126.601    -255.333    -195.823
  C     -128.326    -257.003    -196.166
  O     -129.181    -255.845    -196.210
  C     -128.620    -257.930    -197.361
  N     -130.944    -261.902    -195.242
  C     -131.380    -260.600    -195.400
  N     -132.624    -260.324    -194.953
  N     -130.662    -259.652    -195.944
  C     -129.456    -260.083    -196.381
  C     -128.906    -261.344    -196.281
  C     -129.694    -262.372    -195.631
  O     -129.336    -263.522    -195.402
  N     -127.663    -261.395    -196.855
  C     -127.472    -260.185    -197.334
  N     -128.516    -259.343    -197.044
  O     -125.198    -257.001    -202.386
  O     -124.098    -258.465    -200.592
  H     -128.866    -255.234    -195.520
  H     -124.265    -256.838    -202.615
  H     -131.545    -262.593    -194.833
  H     -126.598    -259.875    -197.890
  H     -129.614    -257.737    -197.778
  H     -128.465    -257.471    -195.187
  H     -133.271    -261.034    -194.645
  H     -126.206    -257.367    -196.066
  H     -132.975    -259.385    -195.093
  H     -127.366    -255.582    -198.285
  H     -124.868    -255.762    -198.136
  H     -125.007    -257.520    -198.369
  P     -125.362    -255.292    -194.798
  C     -124.928    -252.816    -195.465
  O     -124.407    -254.128    -195.344
  O     -124.569    -256.638    -195.134
  O     -125.755    -255.207    -193.363
  H     -124.058    -256.931    -194.352
  H     -125.631    -252.589    -194.657
  H     -125.438    -252.717    -196.428
  H     -124.102    -252.103    -195.422
  H     -128.247    -259.106    -202.107
  H     -126.698    -259.058    -202.914
  H     -127.563    -257.574    -202.595

 3  4  5  6  7  8  9  10  11  12  23  26  30  31  33  0
 6-311+G(2d,p)
 ****
 35  36  37  38 0
 6-311+G(2d,p)
 ****
 1  2  13  14  15  16  17  18  19  20  21  22  24  25  27  28  29 0
 3-21G
 ****
 32  34  39  40  41  42  43  44  45  46  47  48  49 0
 3-21G
 ****


