%nproc=1
%NoSave
%Mem=1900MB
#P OB98/GEN NMR

erre ene a

0 1
  C     -378.200     135.896     -80.364
  O     -377.632     135.247     -79.221
  P     -376.264     134.414     -79.291
  C     -375.638     134.215     -76.797
  O     -376.120     133.540     -77.953
  C     -376.053     133.494     -75.507
  O     -377.472     133.612     -75.287
  C     -375.731     132.001     -75.491
  O     -374.356     131.793     -75.212
  C     -376.696     131.503     -74.403
  O     -376.145     131.753     -73.094
  C     -377.923     132.395     -74.653
  N     -381.566     128.801     -74.700
  C     -380.739     129.228     -73.725
  N     -379.785     130.188     -73.779
  C     -379.757     130.743     -75.020
  C     -380.533     130.405     -76.120
  C     -381.473     129.374     -75.929
  N     -382.304     128.926     -76.927
  N     -380.196     131.161     -77.213
  C     -379.245     131.962     -76.781
  N     -378.948     131.754     -75.459
  O     -375.058     135.247     -79.607
  O     -376.510     133.323     -80.439
  H     -375.706     132.629     -73.136
  H     -375.664     133.079     -80.852
  H     -380.851     128.739     -72.758
  H     -378.741     132.725     -77.372
  H     -378.391     132.694     -73.702
  H     -376.898     130.440     -74.480
  H     -376.004     131.552     -76.454
  H     -375.550     134.006     -74.665
  H     -376.055     135.231     -76.791
  H     -382.931     128.163     -76.723
  H     -382.218     129.317     -77.855
  H     -374.550     134.278     -76.860
  P     -373.563     130.612     -75.950
  C     -371.539     131.998     -76.709
  O     -372.003     130.961     -75.861
  O     -374.056     130.259     -77.319
  O     -373.704     129.366     -74.950
  H     -373.686     128.531     -75.449
  H     -371.405     131.613     -77.719
  H     -370.585     132.364     -76.321
  H     -372.258     132.831     -76.723
  H     -379.107     136.387     -80.081
  H     -378.409     135.168     -81.120
  H     -377.508     136.617     -80.745

 3  4  5  6  7  8  9  10  11  12  22  25  29  30  31  32 0
 6-311+G(2d,p)
 ****
 33  36  37 0
 6-311+G(2d,p)
 ****
 1  2  13  14  15  16  17  18  19  20  21  23  24  26 0
 3-21G
 ****
 27  28  34  35  38  39  40  41  42  43  44  45  46  47  48 0
 3-21G
 ****


