%nproc=1
%NoSave
%Mem=1900MB
#P OB98/GEN NMR

erre ene a

0 1
  C      -50.634     -66.542      41.821
  O      -49.288     -66.615      42.256
  P      -48.431     -67.916      41.876
  C      -48.183     -67.064      39.404
  O      -48.563     -68.101      40.289
  C      -47.368     -67.632      38.238
  O      -47.098     -66.565      37.288
  C      -46.017     -68.237      38.642
  O      -45.778     -69.355      37.778
  C      -45.041     -67.113      38.344
  O      -43.711     -67.575      38.169
  C      -45.673     -66.515      37.083
  N      -45.242     -65.144      36.810
  C      -45.095     -64.760      35.481
  O      -45.287     -65.509      34.526
  N      -44.686     -63.467      35.278
  C      -44.352     -62.566      36.247
  O      -43.974     -61.426      36.007
  C      -44.480     -63.044      37.630
  C      -44.920     -64.284      37.844
  O      -49.345     -69.078      42.482
  O      -47.031     -67.883      42.388
  H      -50.296     -68.892      42.405
  H      -43.169     -66.824      37.864
  H      -44.609     -63.155      34.322
  H      -44.210     -62.362      38.428
  H      -45.021     -64.659      38.855
  H      -45.451     -67.148      36.215
  H      -45.047     -66.397      39.173
  H      -46.000     -68.563      39.686
  H      -47.982     -68.379      37.721
  H      -47.573     -66.333      39.941
  H      -49.080     -66.552      39.040
  P      -44.782     -70.511      38.290
  C      -46.394     -71.396      40.152
  O      -45.152     -70.819      39.816
  O      -43.418     -69.673      38.417
  O      -44.657     -71.684      37.377
  H      -43.533     -68.836      38.895
  H      -46.322     -71.827      41.153
  H      -46.670     -72.187      39.451
  H      -47.168     -70.624      40.156
  H      -51.066     -65.621      42.152
  H      -51.186     -67.362      42.230
  H      -50.667     -66.588      40.752

 3  4  5  6  7  8  9  10  11  12  13  24  28  29  30  31  32 0
 6-311+G(2d,p)
 ****
 33  34 0
 6-311+G(2d,p)
 ****
 1  2  14  15  16  17  18  19  20  21  22  23  25  26  27 0
 3-21G
 ****
 35  36  37  38  39  40  41  42  43  44  45 0
 3-21G
 ****


