%nproc=1
%NoSave
%Mem=1900MB
#P OB98/GEN NMR

erre ene a

0 1
  C       -0.348    -441.990    -714.533
  O        0.461    -441.175    -715.345
  P        2.014    -440.942    -715.006
  C        2.003    -438.393    -715.452
  O        2.472    -439.682    -715.883
  C        2.076    -437.387    -716.614
  O        3.427    -437.170    -717.014
  C        1.320    -437.823    -717.862
  O       -0.083    -437.666    -717.696
  C        1.948    -436.917    -718.918
  O        1.340    -435.617    -718.909
  C        3.422    -436.837    -718.420
  N        4.300    -437.687    -719.187
  C        4.448    -437.370    -720.556
  O        3.808    -436.420    -721.034
  N        5.278    -438.137    -721.350
  C        5.874    -439.160    -720.820
  N        6.679    -439.903    -721.644
  C        5.747    -439.563    -719.400
  C        4.942    -438.790    -718.660
  O        2.886    -442.153    -715.120
  O        1.972    -440.331    -713.513
  H        1.538    -435.239    -718.015
  H        1.761    -441.043    -712.845
  H        6.258    -440.418    -719.008
  H        4.784    -439.003    -717.589
  H        3.790    -435.789    -718.498
  H        1.852    -437.341    -719.921
  H        1.561    -438.876    -718.081
  H        1.658    -436.430    -716.237
  H        6.712    -439.614    -722.617
  H        2.660    -438.064    -714.654
  H        7.167    -440.740    -721.354
  H        0.993    -438.503    -715.062
  P       -1.034    -438.953    -717.664
  C       -2.465    -438.552    -719.763
  O       -2.430    -438.542    -718.330
  O       -1.157    -439.618    -716.329
  O       -0.385    -439.947    -718.747
  H       -0.368    -440.836    -718.384
  H       -3.516    -438.572    -720.081
  H       -1.933    -439.409    -720.167
  H       -2.005    -437.614    -720.141
  H       -1.342    -442.014    -714.929
  H       -0.369    -441.594    -713.539
  H        0.052    -442.982    -714.513

 3  4  5  6  7  8  9  10  11  12  13  23  27  28  29  30  32 0
 6-311+G(2d,p)
 ****
 34  35 0
 6-311+G(2d,p)
 ****
 1  2  14  15  16  17  18  19  20  21  22  24  25  26 0
 3-21G
 ****
 31  33  36  37  38  39  40  41  42  43  44  45  46 0
 3-21G
 ****


