%nproc=1
%NoSave
%Mem=1900MB
#P OB98/GEN NMR

erre ene a

0 1
  C     1057.312    -334.944      49.137
  O     1058.378    -335.696      48.542
  P     1057.992    -337.100      47.855
  C     1059.166    -336.653      45.561
  O     1059.151    -337.375      46.788
  C     1060.614    -336.432      45.092
  O     1061.244    -335.379      45.866
  C     1061.503    -337.653      45.280
  O     1061.237    -338.651      44.300
  C     1062.890    -337.021      45.172
  O     1063.238    -336.825      43.789
  C     1062.661    -335.660      45.872
  N     1063.206    -335.618      47.229
  C     1064.600    -335.583      47.318
  O     1065.338    -335.608      46.348
  N     1065.109    -335.523      48.590
  C     1064.379    -335.537      49.744
  O     1064.896    -335.492      50.854
  C     1062.923    -335.639      49.590
  C     1062.406    -335.674      48.350
  O     1056.722    -336.674      46.977
  O     1057.744    -338.186      48.853
  H     1056.797    -335.772      46.619
  H     1062.587    -336.169      43.450
  H     1066.124    -335.487      48.679
  H     1062.319    -335.685      50.480
  H     1061.344    -335.731      48.215
  H     1063.125    -334.848      45.286
  H     1063.675    -337.643      45.630
  H     1061.361    -338.082      46.277
  H     1060.596    -336.135      44.042
  H     1058.693    -335.674      45.695
  H     1058.594    -337.193      44.814
  P     1061.902    -340.093      44.534
  C     1059.561    -341.262      44.491
  O     1060.858    -341.175      43.959
  O     1061.790    -340.248      46.119
  O     1063.289    -340.198      43.985
  H     1060.921    -339.969      46.474
  H     1058.917    -341.778      43.787
  H     1059.142    -340.268      44.709
  H     1059.587    -341.839      45.422
  H     1057.703    -334.040      49.554
  H     1056.854    -335.525      49.910
  H     1056.583    -334.706      48.391

 3  4  5  6  7  8  9  10  11  12  13  24  28  29  30  31  32 0
 6-311+G(2d,p)
 ****
 33  34 0
 6-311+G(2d,p)
 ****
 1  2  14  15  16  17  18  19  20  21  22  23  25  26  27 0
 3-21G
 ****
 35  36  37  38  39  40  41  42  43  44  45 0
 3-21G
 ****


