%nproc=1
%NoSave
%Mem=1900MB
#P OB98/GEN NMR

erre ene a

0 1
  C       63.476    -456.638    -496.110
  O       62.662    -457.789    -496.179
  H       63.862    -456.425    -497.110
  H       64.322    -456.807    -495.439
  H       62.895    -455.775    -495.771
  P       61.971    -458.320    -494.831
  C       59.711    -457.101    -495.186
  O       60.920    -457.161    -494.448
  C       58.546    -456.747    -494.266
  O       58.406    -457.712    -493.200
  C       58.679    -455.407    -493.551
  O       58.471    -454.284    -494.391
  C       57.589    -455.557    -492.507
  O       56.302    -455.372    -493.122
  C       57.801    -457.025    -492.070
  N       58.645    -457.144    -490.882
  C       58.174    -457.973    -489.859
  O       57.096    -458.557    -489.966
  N       58.922    -458.100    -488.709
  C       60.028    -457.433    -488.587
  N       60.724    -457.591    -487.424
  C       60.552    -456.535    -489.633
  C       59.821    -456.438    -490.739
  O       62.900    -458.732    -493.735
  O       60.994    -459.491    -495.314
  H       55.633    -455.577    -492.444
  H       60.546    -459.862    -494.514
  H       61.464    -455.981    -489.468
  H       60.138    -455.794    -491.553
  H       56.839    -457.514    -491.870
  H       57.664    -454.831    -491.697
  H       59.647    -455.333    -493.035
  H       57.628    -456.794    -494.864
  H       60.338    -458.214    -486.728
  H       59.551    -458.076    -495.660
  H       61.555    -457.056    -487.214
  H       59.783    -456.335    -495.964
  P       59.104    -452.887    -493.914
  C       61.493    -453.340    -494.870
  O       60.673    -453.146    -493.726
  O       58.551    -452.732    -492.421
  O       58.772    -451.712    -494.775
  H       57.773    -452.141    -492.400
  H       62.505    -453.498    -494.561
  H       61.443    -452.474    -495.496
  H       61.149    -454.194    -495.415

 6  7  8  9  10  11  12  13  14  15  16  26  30  31  32  33  35 0
 6-311+G(2d,p)
 ****
 37  38 0
 6-311+G(2d,p)
 ****
 1  2  3  4  5  17  18  19  20  21  22  23  24  25 0
 3-21G
 ****
 27  28  29  34  36  39  40  41  42  43  44  45  46 0
 3-21G
 ****


