%nproc=1
%NoSave
%Mem=1900MB
#P OB98/GEN NMR

erre ene a

0 1
  C      -44.189     279.754    -331.626
  O      -43.152     278.839    -331.270
  P      -42.463     278.949    -329.830
  C      -40.272     277.840    -330.653
  O      -41.329     277.819    -329.696
  C      -39.782     276.412    -330.920
  O      -39.231     275.809    -329.722
  C      -40.902     275.470    -331.345
  O      -41.461     275.683    -332.626
  C      -40.295     274.107    -331.073
  O      -39.457     273.676    -332.144
  C      -39.455     274.388    -329.804
  N      -40.089     273.877    -328.584
  C      -39.587     272.677    -328.093
  O      -38.699     272.033    -328.651
  N      -40.174     272.214    -326.945
  C      -41.207     272.804    -326.280
  O      -41.711     272.333    -325.265
  C      -41.708     274.061    -326.858
  C      -41.136     274.532    -327.969
  O      -43.395     279.050    -328.673
  O      -41.591     280.296    -329.958
  H      -39.145     272.778    -331.929
  H      -41.672     280.781    -329.115
  H      -39.819     271.346    -326.567
  H      -42.535     274.551    -326.361
  H      -41.490     275.456    -328.416
  H      -38.467     273.918    -329.886
  H      -41.069     273.338    -330.946
  H      -41.733     275.595    -330.638
  H      -38.986     276.451    -331.666
  H      -39.455     278.459    -330.285
  H      -40.635     278.316    -331.572
  P      -42.996     275.377    -332.971
  C      -42.165     275.800    -335.395
  O      -43.260     275.778    -334.505
  O      -44.027     275.790    -331.972
  O      -42.982     273.767    -333.059
  H      -43.852     273.438    -332.748
  H      -42.522     276.110    -336.380
  H      -41.724     274.806    -335.475
  H      -41.410     276.513    -335.053
  H      -44.532     279.537    -332.616
  H      -43.810     280.754    -331.592
  H      -45.002     279.657    -330.937

 3  4  5  6  7  8  9  10  11  12  13  23  28  29  30  31  32 0
 6-311+G(2d,p)
 ****
 33  34 0
 6-311+G(2d,p)
 ****
 1  2  14  15  16  17  18  19  20  21  22  24  25  26  27 0
 3-21G
 ****
 35  36  37  38  39  40  41  42  43  44  45 0
 3-21G
 ****


