%nproc=1
%NoSave
%Mem=1900MB
#P OB98/GEN NMR

erre ene a

0 1
  C      757.009    -258.036    -460.666
  O      757.088    -256.653    -460.448
  P      756.246    -255.894    -459.305
  C      754.150    -254.418    -459.785
  O      754.734    -255.724    -459.821
  C      754.618    -253.520    -460.928
  O      754.515    -254.236    -462.183
  C      753.697    -252.298    -461.043
  O      753.901    -251.161    -460.236
  C      753.628    -252.011    -462.551
  O      754.501    -250.964    -462.955
  C      754.046    -253.340    -463.190
  N      750.849    -253.046    -467.122
  C      751.996    -252.310    -466.880
  N      752.198    -251.236    -467.689
  N      752.839    -252.582    -465.915
  C      752.441    -253.626    -465.142
  C      751.357    -254.445    -465.300
  C      750.455    -254.152    -466.394
  O      749.398    -254.730    -466.611
  N      751.243    -255.344    -464.286
  C      752.250    -255.065    -463.481
  N      752.974    -253.993    -463.942
  O      756.922    -254.741    -458.634
  O      756.095    -257.068    -458.194
  H      754.371    -250.789    -463.912
  H      756.127    -256.650    -457.326
  H      750.202    -252.739    -467.844
  H      752.456    -255.566    -462.540
  H      754.876    -253.186    -463.896
  H      752.612    -251.683    -462.825
  H      751.508    -250.917    -468.336
  H      752.690    -252.638    -460.783
  H      752.939    -250.580    -467.431
  H      755.689    -253.256    -460.829
  H      754.423    -253.979    -458.809
  H      753.069    -254.511    -459.806
  P      752.930    -249.910    -460.103
  C      753.698    -247.681    -461.129
  O      753.126    -248.964    -461.383
  O      753.546    -249.040    -458.899
  O      751.510    -250.248    -459.792
  H      752.871    -248.457    -458.516
  H      753.523    -247.045    -461.985
  H      754.779    -247.795    -460.970
  H      753.258    -247.233    -460.227
  H      757.656    -258.307    -461.474
  H      756.002    -258.302    -460.911
  H      757.309    -258.555    -459.780

 3  4  5  6  7  8  9  10  11  12  23  26  30  31 0
 6-311+G(2d,p)
 ****
 33  35  36  37  38 0
 6-311+G(2d,p)
 ****
 1  2  13  14  15  16  17  18  19  20  21  22  24  25 0
 3-21G
 ****
 27  28  29  32  34  39  40  41  42  43  44  45  46  47  48  49 0
 3-21G
 ****


