%nproc=1
%NoSave
%Mem=1900MB
#P OB98/GEN NMR

erre ene a

0 1
  C      421.692     439.090    1922.880
  O      421.041     439.698    1924.007
  P      420.616     438.928    1925.338
  C      421.893     440.422    1927.112
  O      421.762     439.185    1926.436
  C      422.739     440.292    1928.371
  O      422.046     439.375    1929.303
  C      424.138     439.687    1928.113
  O      425.161     440.335    1928.832
  C      423.926     438.211    1928.364
  O      425.129     437.493    1928.633
  C      422.901     438.236    1929.508
  N      422.841     433.126    1930.091
  C      423.910     433.989    1929.956
  N      425.149     433.440    1929.927
  N      423.807     435.279    1929.802
  C      422.529     435.707    1929.728
  C      421.359     434.965    1929.863
  C      421.507     433.543    1930.076
  O      420.602     432.746    1930.225
  N      420.228     435.762    1929.751
  C      420.722     436.951    1929.564
  N      422.079     437.018    1929.547
  O      420.117     437.529    1925.188
  O      419.392     439.842    1925.887
  H      425.458     437.846    1929.494
  H      418.794     439.217    1926.353
  H      422.997     432.135    1930.218
  H      420.082     437.860    1929.443
  H      423.356     438.334    1930.481
  H      423.484     437.755    1927.473
  H      425.311     432.413    1929.935
  H      424.425     439.842    1927.065
  H      425.910     434.023    1929.588
  H      422.806     441.286    1928.875
  H      420.890     440.746    1927.337
  H      422.321     441.178    1926.414
  P      425.806     441.812    1928.617
  C      425.944     442.379    1931.126
  O      425.334     442.713    1929.860
  O      424.920     442.440    1927.407
  O      427.258     441.827    1928.307
  H      425.537     442.645    1926.692
  H      425.351     442.885    1931.926
  H      426.964     442.764    1931.154
  H      425.898     441.319    1931.295
  H      421.863     439.829    1922.125
  H      421.070     438.314    1922.485
  H      422.628     438.674    1923.190

 3  4  5  6  7  8  9  10  11  12  23  26  30  31 0
 6-311+G(2d,p)
 ****
 33  35  36  37  38 0
 6-311+G(2d,p)
 ****
 1  2  13  14  15  16  17  18  19  20  21  22  24  25 0
 3-21G
 ****
 27  28  29  32  34  39  40  41  42  43  44  45  46  47  48  49 0
 3-21G
 ****


