%nproc=1
%NoSave
%Mem=1900MB
#P OB98/GEN NMR

erre ene a

0 1
  C      231.439    -108.540    -788.887
  O      232.762    -109.000    -788.654
  P      233.734    -109.152    -789.927
  C      234.698    -106.736    -789.797
  O      234.952    -108.135    -789.680
  C      235.694    -105.939    -788.971
  O      235.617    -106.338    -787.588
  C      237.148    -106.128    -789.373
  O      237.503    -105.347    -790.504
  C      237.870    -105.636    -788.128
  O      237.951    -104.205    -788.150
  C      236.926    -106.107    -786.990
  N      239.637    -108.067    -783.201
  C      239.413    -106.742    -783.530
  N      239.963    -105.808    -782.733
  N      238.705    -106.373    -784.575
  C      238.180    -107.409    -785.261
  C      238.337    -108.767    -785.024
  C      239.175    -109.161    -783.903
  O      239.445    -110.313    -783.589
  N      237.644    -109.515    -785.941
  C      237.038    -108.617    -786.703
  N      237.354    -107.333    -786.344
  O      232.902    -108.440    -791.096
  O      234.099    -110.551    -790.275
  H      238.401    -103.950    -788.976
  H      233.162    -108.800    -791.970
  H      240.174    -108.293    -782.372
  H      236.359    -108.866    -787.511
  H      236.801    -105.342    -786.231
  H      238.899    -106.026    -788.042
  H      240.403    -106.032    -781.841
  H      237.380    -107.198    -789.547
  H      239.777    -104.843    -782.931
  H      235.414    -104.876    -789.037
  H      233.680    -106.524    -789.436
  H      234.759    -106.473    -790.859
  P      238.821    -105.782    -791.317
  C      237.368    -107.260    -792.881
  O      238.305    -106.209    -792.772
  O      239.228    -107.162    -790.614
  O      239.935    -104.784    -791.264
  H      240.192    -107.321    -790.708
  H      236.652    -107.253    -792.054
  H      237.887    -108.220    -792.890
  H      236.822    -107.146    -793.814
  H      230.911    -108.488    -787.958
  H      230.937    -109.217    -789.545
  H      231.473    -107.568    -789.333

 3  4  5  6  7  8  9  10  11  12  23  26  30  31  33  0
 6-311+G(2d,p)
 ****
 35  36  37  38 0
 6-311+G(2d,p)
 ****
 1  2  13  14  15  16  17  18  19  20  21  22  24  25  27  28  29 0
 3-21G
 ****
 32  34  39  40  41  42  43  44  45  46  47  48  49 0
 3-21G
 ****


