%nproc=1
%NoSave
%Mem=1900MB
#P OB98/GEN NMR

erre ene a

0 1
  C      160.940    -370.251     -70.773
  O      161.882    -371.253     -70.444
  H      160.978    -369.467     -70.010
  H      159.932    -370.676     -70.794
  H      161.179    -369.810     -71.745
  P      161.987    -372.503     -71.442
  C      163.685    -372.302     -73.396
  O      163.499    -372.509     -72.003
  C      165.126    -371.869     -73.681
  O      165.261    -370.451     -73.373
  C      166.180    -372.624     -72.856
  O      167.335    -372.850     -73.677
  C      166.537    -371.632     -71.760
  O      167.824    -371.883     -71.206
  C      166.420    -370.314     -72.523
  N      168.882    -366.340     -70.652
  C      169.276    -367.284     -71.581
  N      170.521    -367.152     -72.095
  N      168.520    -368.274     -71.975
  C      167.286    -368.268     -71.404
  C      166.781    -367.401     -70.460
  C      167.640    -366.322     -70.020
  O      167.353    -365.467     -69.183
  N      165.499    -367.754     -70.102
  C      165.239    -368.830     -70.825
  N      166.290    -369.175     -71.633
  O      161.127    -372.042     -72.714
  O      161.517    -373.808     -70.890
  H      168.086    -371.095     -70.687
  H      160.720    -372.808     -73.157
  H      169.508    -365.608     -70.375
  H      164.315    -369.393     -70.799
  H      167.294    -370.123     -73.160
  H      165.796    -371.682     -70.953
  H      171.148    -366.399     -71.865
  H      165.825    -373.577     -72.454
  H      170.823    -367.829     -72.791
  H      165.316    -371.975     -74.755
  H      162.997    -371.522     -73.738
  H      163.466    -373.233     -73.931
  P      167.315    -374.119     -74.656
  C      166.210    -373.213     -76.828
  O      167.414    -373.601     -76.176
  O      165.797    -374.638     -74.538
  O      168.285    -375.190     -74.277
  H      165.778    -375.473     -74.030
  H      166.431    -372.894     -77.825
  H      165.756    -372.408     -76.289
  H      165.538    -374.045     -76.861

 6  7  8  9  10  11  12  13  14  15  26  29  33  34 0
 6-311+G(2d,p)
 ****
 36  38  39  40  41 0
 6-311+G(2d,p)
 ****
 1  2  3  4  5  16  17  18  19  20  21  22  23  24  25 0
 3-21G
 ****
 27  28  30  31  32  35  37  42  43  44  45  46  47 0
 3-21G
 ****
 48  49 0
 3-21G
 ****


