%nproc=1
%NoSave
%Mem=1900MB
#P OB98/GEN NMR

erre ene a

0 1
  C       45.170    -899.329     465.734
  O       46.122    -898.509     465.062
  P       45.579    -897.419     464.016
  C       46.766    -895.469     465.224
  O       45.522    -895.979     464.737
  C       46.583    -894.049     465.798
  O       46.263    -893.149     464.700
  C       45.432    -893.909     466.806
  O       45.719    -894.129     468.179
  C       45.108    -892.429     466.659
  O       46.001    -891.649     467.472
  C       45.357    -892.139     465.188
  N       40.973    -889.639     464.251
  C       41.994    -889.389     465.110
  N       43.116    -890.109     465.300
  C       43.164    -891.169     464.478
  C       42.199    -891.549     463.558
  C       41.055    -890.739     463.462
  N       40.015    -890.999     462.597
  N       42.572    -892.709     462.897
  C       43.742    -893.029     463.440
  N       44.139    -892.129     464.381
  O       44.359    -897.799     463.253
  O       46.830    -897.249     463.023
  H       45.860    -891.939     468.393
  H       46.515    -897.139     462.108
  H       41.894    -888.499     465.729
  H       44.322    -893.909     463.170
  H       45.849    -891.169     465.029
  H       44.092    -892.179     467.004
  H       44.564    -894.519     466.507
  H       47.524    -893.709     466.242
  H       47.508    -895.449     464.421
  H       39.209    -890.389     462.626
  H       40.036    -891.839     462.040
  H       47.133    -896.169     465.975
  P       45.059    -895.359     468.979
  C       47.550    -896.149     469.176
  O       46.187    -896.499     469.019
  O       43.736    -895.799     468.470
  O       45.037    -894.819     470.490
  H       45.911    -894.719     470.893
  H       48.122    -897.049     469.392
  H       47.689    -895.439     469.996
  H       47.931    -895.709     468.244
  H       45.680    -900.000     466.393
  H       44.612    -899.890     465.014
  H       44.503    -898.711     466.299

 3  4  5  6  7  8  9  10  11  12  22  25  29  30  31  32 0
 6-311+G(2d,p)
 ****
 33  36  37 0
 6-311+G(2d,p)
 ****
 1  2  13  14  15  16  17  18  19  20  21  23  24  26 0
 3-21G
 ****
 27  28  34  35  38  39  40  41  42  43  44  45  46  47  48 0
 3-21G
 ****


