%nproc=1
%NoSave
%Mem=1900MB
#P OB98/GEN NMR

erre ene a

0 1
  C      -94.622    -207.559     164.027
  O      -93.739    -208.649     164.168
  P      -92.169    -208.468     163.899
  C      -92.512    -210.372     162.202
  O      -91.882    -209.123     162.459
  C      -92.705    -210.564     160.701
  O      -93.561    -209.529     160.147
  C      -91.420    -210.457     159.892
  O      -90.443    -211.454     160.088
  C      -91.968    -210.293     158.482
  O      -92.338    -211.550     157.920
  C      -93.225    -209.423     158.740
  N      -93.021    -208.033     158.335
  C      -92.860    -207.817     156.971
  O      -92.880    -208.713     156.130
  N      -92.633    -206.520     156.596
  C      -92.512    -205.450     157.439
  O      -92.266    -204.320     157.038
  C      -92.680    -205.745     158.871
  C      -92.920    -207.003     159.248
  O      -91.278    -208.955     164.991
  O      -92.026    -206.900     163.593
  H      -92.820    -211.368     157.088
  H      -92.541    -206.587     162.827
  H      -92.501    -206.339     155.616
  H      -92.601    -204.917     159.563
  H      -93.042    -207.245     160.299
  H      -94.084    -209.820     158.181
  H      -91.230    -209.841     157.808
  H      -90.929    -209.508     160.155
  H      -93.207    -211.519     160.536
  H      -93.493    -210.383     162.691
  H      -91.913    -211.181     162.633
  P      -88.969    -211.380     159.468
  C      -89.640    -213.076     157.623
  O      -89.044    -211.832     157.932
  O      -87.862    -211.942     160.297
  O      -88.759    -209.791     159.330
  H      -87.811    -209.586     159.444
  H      -89.567    -213.241     156.546
  H      -90.699    -213.071     157.905
  H      -89.122    -213.889     158.137
  H      -95.619    -207.877     164.248
  H      -94.579    -207.192     163.023
  H      -94.338    -206.780     164.704

 3  4  5  6  7  8  9  10  11  12  13  23  28  29  30  31  32 0
 6-311+G(2d,p)
 ****
 33  34 0
 6-311+G(2d,p)
 ****
 1  2  14  15  16  17  18  19  20  21  22  24  25  26  27 0
 3-21G
 ****
 35  36  37  38  39  40  41  42  43  44  45 0
 3-21G
 ****


