%nproc=1
%NoSave
%Mem=1900MB
#P OB98/GEN NMR

erre ene a

0 1
  C       27.020    -896.110     248.505
  O       27.269    -894.800     248.992
  H       26.399    -896.030     247.610
  H       26.477    -896.700     249.253
  H       27.961    -896.600     248.241
  P       28.161    -894.640     250.316
  C       27.684    -895.020     252.844
  O       27.181    -895.080     251.513
  C       26.704    -894.270     253.749
  O       25.416    -894.900     253.766
  C       27.127    -894.190     255.211
  O       28.201    -893.290     255.461
  C       25.819    -893.730     255.824
  O       25.635    -892.320     255.561
  C       24.810    -894.590     255.050
  N       24.440    -895.820     255.755
  C       23.729    -895.670     256.964
  O       23.450    -894.550     257.380
  N       23.385    -896.800     257.674
  C       23.740    -897.970     257.235
  N       23.391    -899.050     257.987
  C       24.510    -898.170     255.982
  C       24.813    -897.050     255.302
  O       28.836    -893.310     250.495
  O       29.175    -895.870     250.270
  H       26.310    -891.850     256.093
  H       29.763    -895.810     251.071
  H       24.807    -899.170     255.680
  H       25.385    -897.130     254.384
  H       23.885    -894.020     254.837
  H       25.780    -893.860     256.905
  H       27.359    -895.190     255.601
  H       26.580    -893.260     253.317
  H       22.869    -898.880     258.839
  H       28.659    -894.530     252.809
  H       23.681    -900.000     257.761
  H       27.806    -896.030     253.227
  P       29.156    -893.630     256.706
  C       29.003    -893.240     259.289
  O       28.417    -893.030     258.019
  O       30.398    -892.640     256.491
  O       29.558    -895.070     256.830
  H       31.141    -893.130     256.062
  H       28.395    -892.784     260.042
  H       29.980    -892.804     259.307
  H       29.077    -894.291     259.478

 6  7  8  9  10  11  12  13  14  15  16  26  30  31  32  33  35 0
 6-311+G(2d,p)
 ****
 37  38 0
 6-311+G(2d,p)
 ****
 1  2  3  4  5  17  18  19  20  21  22  23  24  25 0
 3-21G
 ****
 27  28  29  34  36  39  40  41  42  43  44  45  46 0
 3-21G
 ****


