%nproc=1
%NoSave
%Mem=1900MB
#P OB98/GEN NMR

erre ene a

0 1
  C      172.437     151.434      20.838
  O      172.521     150.266      20.047
  P      171.479     149.066      20.243
  C      168.944     148.808      19.973
  O      170.005     149.706      20.274
  C      167.791     148.958      20.965
  O      168.243     148.542      22.285
  C      167.242     150.386      21.101
  O      165.838     150.269      21.351
  C      167.942     150.897      22.352
  O      167.271     151.999      22.951
  C      167.954     149.626      23.194
  N      169.079     151.447      27.838
  C      168.013     151.639      27.032
  N      167.800     151.141      25.795
  C      168.828     150.365      25.412
  C      169.992     150.100      26.109
  C      170.096     150.668      27.394
  N      171.158     150.453      28.245
  N      170.840     149.306      25.358
  C      170.192     149.099      24.229
  N      168.947     149.664      24.242
  O      171.780     148.142      21.375
  O      171.509     148.293      18.844
  H      167.184     152.706      22.285
  H      171.995     147.449      18.941
  H      167.226     152.274      27.429
  H      170.575     148.553      23.378
  H      166.979     149.429      23.658
  H      168.960     151.216      22.099
  H      167.430     151.021      20.228
  H      166.992     148.270      20.668
  H      169.337     147.788      20.031
  H      171.069     150.798      29.187
  H      171.792     149.677      28.053
  H      168.590     148.982      18.952
  P      164.823     151.342      20.727
  C      164.249     152.062      18.338
  O      165.245     151.531      19.195
  O      164.663     152.604      21.509
  O      163.441     150.532      20.626
  H      162.700     151.164      20.523
  H      163.562     151.264      18.044
  H      164.729     152.469      17.445
  H      163.686     152.861      18.833
  H      173.216     152.112      20.557
  H      172.545     151.174      21.870
  H      171.486     151.900      20.685

 3  4  5  6  7  8  9  10  11  12  22  25  29  30  31  32 0
 6-311+G(2d,p)
 ****
 33  36  37 0
 6-311+G(2d,p)
 ****
 1  2  13  14  15  16  17  18  19  20  21  23  24  26 0
 3-21G
 ****
 27  28  34  35  38  39  40  41  42  43  44  45  46  47  48 0
 3-21G
 ****


