%nproc=1
%NoSave
%Mem=1900MB
#P OB98/GEN NMR

erre ene a

0 1
  C     -889.494    -898.940    -894.062
  O     -890.794    -898.480    -894.384
  H     -889.534    -899.420    -893.074
  H     -888.794    -898.100    -894.021
  H     -889.164    -899.680    -894.797
  P     -891.004    -897.910    -895.881
  C     -893.534    -898.600    -895.893
  O     -892.564    -897.580    -895.999
  C     -894.764    -898.140    -895.097
  O     -894.384    -898.000    -893.714
  C     -895.314    -896.770    -895.584
  O     -896.714    -896.790    -895.441
  C     -894.714    -895.780    -894.583
  O     -895.464    -894.590    -894.492
  C     -894.694    -896.630    -893.294
  N     -893.734    -896.140    -892.319
  C     -894.264    -895.550    -891.133
  O     -895.504    -895.440    -891.009
  N     -893.424    -895.040    -890.205
  C     -892.134    -895.090    -890.428
  N     -891.344    -894.540    -889.461
  C     -891.524    -895.660    -891.652
  C     -892.384    -896.180    -892.526
  O     -890.824    -899.220    -896.763
  O     -890.084    -896.780    -896.235
  H     -896.444    -894.820    -894.479
  H     -891.294    -900.000    -896.403
  H     -890.444    -895.630    -891.794
  H     -892.024    -896.630    -893.435
  H     -895.704    -896.660    -892.820
  H     -893.694    -895.520    -894.848
  H     -895.024    -896.530    -896.615
  H     -895.534    -898.910    -895.149
  H     -891.784    -894.130    -888.661
  H     -893.124    -899.490    -895.414
  H     -890.344    -894.450    -889.551
  H     -893.844    -898.900    -896.908
  P     -897.644    -896.730    -896.748
  C     -899.014    -898.950    -896.557
  O     -899.024    -897.510    -896.497
  O     -896.984    -897.070    -898.036
  O     -898.134    -895.200    -896.762
  H     -898.114    -894.880    -897.687
  H     -900.000    -899.322    -896.370
  H     -898.342    -899.333    -895.817
  H     -898.693    -899.264    -897.528

 6  7  8  9  10  11  12  13  14  15  16  26  30  31  32  33  35 0
 6-311+G(2d,p)
 ****
 37  38 0
 6-311+G(2d,p)
 ****
 1  2  3  4  5  17  18  19  20  21  22  23  24  25 0
 3-21G
 ****
 27  28  29  34  36  39  40  41  42  43  44  45  46 0
 3-21G
 ****


