%nproc=1
%NoSave
%Mem=1900MB
#P OB98/GEN NMR

erre ene a

0 1
  C      164.491     693.167     952.145
  O      165.499     692.642     952.981
  H      164.005     692.336     951.622
  H      164.927     693.837     951.394
  H      163.734     693.701     952.729
  P      166.369     693.664     953.861
  C      166.156     691.812     955.669
  O      167.013     692.743     955.019
  C      166.955     690.957     956.645
  O      167.523     691.767     957.707
  C      166.136     689.897     957.382
  O      165.781     688.792     956.567
  C      167.128     689.513     958.469
  O      168.162     688.691     957.920
  C      167.670     690.914     958.873
  N      166.961     691.491     960.010
  C      167.321     691.017     961.282
  O      168.207     690.163     961.410
  N      166.682     691.516     962.388
  C      165.718     692.381     962.243
  N      165.095     692.833     963.371
  C      165.278     692.885     960.922
  C      165.940     692.398     959.870
  O      165.658     694.891     954.340
  O      167.649     693.982     952.955
  H      168.825     688.557     958.631
  H      168.221     694.620     953.449
  H      164.461     693.581     960.848
  H      165.669     692.718     958.869
  H      168.739     690.859     959.110
  H      166.661     688.959     959.297
  H      165.251     690.342     957.849
  H      167.789     690.512     956.093
  H      165.418     692.467     964.255
  H      165.682     691.191     954.904
  H      164.303     693.447     963.339
  H      165.378     692.351     956.225
  P      164.360     688.099     956.864
  C      164.591     686.908     954.552
  O      164.284     686.799     955.932
  O      163.317     689.110     956.201
  O      164.068     687.839     958.312
  H      162.930     689.709     956.876
  H      164.489     685.950     954.087
  H      165.596     687.255     954.437
  H      163.919     687.601     954.091

 6  7  8  9  10  11  12  13  14  15  16  26  30  31  32  33  35 0
 6-311+G(2d,p)
 ****
 37  38 0
 6-311+G(2d,p)
 ****
 1  2  3  4  5  17  18  19  20  21  22  23  24  25 0
 3-21G
 ****
 27  28  29  34  36  39  40  41  42  43  44  45  46 0
 3-21G
 ****


