%nproc=1
%NoSave
%Mem=1900MB
#P OB98/GEN NMR

erre ene a

0 1
  C     -247.869     517.150     350.648
  O     -247.514     515.905     351.226
  P     -248.237     515.355     352.556
  C     -247.834     515.789     355.077
  O     -247.670     516.264     353.753
  C     -248.018     516.968     356.045
  O     -248.958     517.908     355.463
  C     -248.563     516.564     357.435
  O     -247.950     517.443     358.392
  C     -250.046     516.851     357.313
  O     -250.668     517.030     358.567
  C     -250.024     518.104     356.423
  N     -251.300     518.324     355.740
  C     -252.269     519.067     356.414
  O     -252.075     519.499     357.556
  N     -253.469     519.315     355.780
  C     -253.710     518.790     354.619
  N     -254.889     519.112     354.014
  C     -252.745     517.903     353.923
  C     -251.573     517.746     354.524
  O     -248.111     513.888     352.781
  O     -249.740     515.872     352.434
  H     -250.522     516.231     359.106
  H     -250.322     515.266     351.901
  H     -253.003     517.472     352.968
  H     -250.799     517.128     354.073
  H     -249.764     518.989     357.013
  H     -250.542     516.018     356.804
  H     -248.333     515.529     357.691
  H     -247.059     517.487     356.147
  H     -255.436     519.850     354.445
  H     -246.934     515.243     355.358
  H     -255.000     519.016     353.010
  H     -248.688     515.108     355.123
  P     -248.531     517.453     359.891
  C     -250.412     518.710     361.170
  O     -249.739     518.509     359.948
  O     -247.373     518.228     360.691
  O     -248.772     516.119     360.525
  H     -247.396     517.965     361.628
  H     -251.194     519.469     361.024
  H     -249.722     519.076     361.937
  H     -250.887     517.778     361.513
  H     -247.271     517.323     349.778
  H     -247.701     517.933     351.357
  H     -248.903     517.134     350.373

 3  4  5  6  7  8  9  10  11  12  13  23  27  28  29  30  32 0
 6-311+G(2d,p)
 ****
 34  35 0
 6-311+G(2d,p)
 ****
 1  2  14  15  16  17  18  19  20  21  22  24  25  26 0
 3-21G
 ****
 31  33  36  37  38  39  40  41  42  43  44  45  46 0
 3-21G
 ****


