%nproc=1
%NoSave
%Mem=1900MB
#P OB98/GEN NMR

erre ene a

0 1
  C       68.288     620.018     524.107
  O       67.267     620.798     524.692
  P       65.994     621.340     523.896
  C       67.290     623.517     523.205
  O       66.117     622.940     523.774
  C       67.399     625.011     523.563
  O       68.618     625.534     522.977
  C       66.220     625.812     522.974
  O       65.689     626.795     523.843
  C       66.780     626.289     521.633
  O       66.088     627.398     521.087
  C       68.255     626.521     521.972
  N       69.357     627.982     517.229
  C       68.441     628.520     518.114
  N       67.592     629.443     517.609
  N       68.347     628.159     519.374
  C       69.185     627.140     519.700
  C       70.137     626.536     518.920
  C       70.245     626.967     517.534
  O       70.974     626.444     516.696
  N       70.760     625.495     519.579
  C       70.160     625.464     520.744
  N       69.178     626.421     520.866
  O       64.673     620.764     524.264
  O       66.332     620.870     522.386
  H       66.425     627.537     520.186
  H       65.474     620.654     521.948
  H       69.328     628.240     516.255
  H       70.389     624.743     521.538
  H       68.412     627.505     522.413
  H       66.671     625.467     520.909
  H       67.544     629.623     516.618
  H       65.366     625.151     522.781
  H       66.765     629.665     518.156
  H       67.465     625.122     524.648
  H       67.203     623.383     522.131
  H       68.182     622.972     523.544
  P       64.311     626.788     524.638
  C       63.145     628.527     523.149
  O       63.593     628.203     524.459
  O       64.723     626.789     526.192
  O       63.427     625.600     524.356
  H       64.136     626.203     526.696
  H       62.948     629.596     523.104
  H       62.231     627.980     522.933
  H       63.916     628.273     522.404
  H       69.025     619.783     524.846
  H       68.745     620.567     523.310
  H       67.868     619.113     523.721

 3  4  5  6  7  8  9  10  11  12  23  26  30  31 0
 6-311+G(2d,p)
 ****
 33  35  36  37  38 0
 6-311+G(2d,p)
 ****
 1  2  13  14  15  16  17  18  19  20  21  22  24  25 0
 3-21G
 ****
 27  28  29  32  34  39  40  41  42  43  44  45  46  47  48  49 0
 3-21G
 ****


