%nproc=1
%NoSave
%Mem=1900MB
#P OB98/GEN NMR

erre ene a

0 1
  C     -769.841     197.019     272.077
  O     -770.506     195.807     271.763
  P     -771.759     195.864     270.763
  C     -770.404     195.207     268.646
  O     -771.182     196.205     269.302
  C     -771.251     194.422     267.648
  O     -771.954     195.355     266.776
  C     -770.455     193.466     266.747
  O     -771.282     192.342     266.478
  C     -770.286     194.276     265.468
  O     -769.995     193.454     264.340
  C     -771.626     194.991     265.412
  N     -772.261     196.836     260.680
  C     -772.403     195.590     261.187
  N     -772.227     195.182     262.462
  C     -771.846     196.208     263.244
  C     -771.623     197.518     262.858
  C     -771.853     197.829     261.508
  N     -771.712     199.102     260.991
  N     -771.215     198.287     263.942
  C     -771.194     197.439     264.957
  N     -771.591     196.188     264.581
  O     -772.490     197.221     271.201
  O     -772.683     194.701     270.826
  H     -769.986     194.013     263.551
  H     -773.355     197.010     271.621
  H     -772.713     194.820     260.482
  H     -770.914     197.693     265.968
  H     -772.432     194.353     265.044
  H     -769.461     194.995     265.584
  H     -769.503     193.141     267.173
  H     -772.016     193.865     268.199
  H     -770.021     194.518     269.398
  H     -772.030     199.262     260.044
  H     -771.604     199.880     261.631
  H     -769.553     195.676     268.142
  P     -770.548     190.937     266.216
  C     -771.010     190.032     268.602
  O     -770.038     190.414     267.645
  O     -769.192     191.366     265.461
  O     -771.346     189.962     265.410
  H     -768.889     190.634     264.885
  H     -770.596     189.211     269.211
  H     -771.945     189.698     268.130
  H     -771.217     190.877     269.260
  H     -769.034     196.819     272.750
  H     -770.530     197.695     272.538
  H     -769.457     197.458     271.180

 3  4  5  6  7  8  9  10  11  12  22  25  29  30  31  32 0
 6-311+G(2d,p)
 ****
 33  36  37 0
 6-311+G(2d,p)
 ****
 1  2  13  14  15  16  17  18  19  20  21  23  24  26 0
 3-21G
 ****
 27  28  34  35  38  39  40  41  42  43  44  45  46  47  48 0
 3-21G
 ****


