%nproc=1
%NoSave
%Mem=1900MB
#P OB98/GEN NMR

erre ene a

0 1
  C      383.281     -84.823     -86.455
  O      382.702     -85.343     -87.632
  H      384.047     -84.094     -86.735
  H      383.751     -85.615     -85.865
  H      382.520     -84.316     -85.853
  P      381.731     -86.619     -87.495
  C      382.185     -88.970     -86.528
  O      382.705     -87.879     -87.287
  C      383.067     -90.213     -86.676
  O      382.998     -90.709     -88.032
  C      384.544     -89.950     -86.426
  O      384.857     -89.670     -85.079
  C      385.209     -91.131     -87.118
  O      385.303     -92.294     -86.301
  C      384.237     -91.396     -88.298
  N      384.813     -91.006     -89.580
  C      386.026     -91.599     -89.904
  O      386.618     -92.391     -89.167
  N      386.575     -91.222     -91.101
  C      386.062     -90.290     -91.952
  O      386.625     -89.960     -92.993
  C      384.789     -89.676     -91.545
  C      384.228     -90.056     -90.393
  O      380.735     -86.799     -88.603
  O      381.065     -86.434     -86.054
  H      385.994     -92.120     -85.631
  H      380.259     -86.998     -85.959
  H      387.452     -91.649     -91.355
  H      384.352     -88.930     -92.197
  H      383.289     -89.617     -90.067
  H      383.994     -92.465     -88.352
  H      386.225     -90.884     -87.442
  H      384.834     -89.058     -86.993
  H      382.681     -90.993     -86.011
  H      381.182     -89.192     -86.910
  H      382.106     -88.681     -85.474
  P      385.805     -88.463     -84.630
  C      388.310     -87.833     -84.936
  O      387.322     -88.860     -84.991
  O      385.524     -87.844     -83.300
  O      385.467     -87.361     -85.759
  H      385.530     -86.482     -85.337
  H      389.264     -88.241     -85.199
  H      388.354     -87.433     -83.944
  H      388.054     -87.054     -85.624

 6  7  8  9  10  11  12  13  14  15  16  26  31  32  33  34  35 0
 6-311+G(2d,p)
 ****
 36  37 0
 6-311+G(2d,p)
 ****
 1  2  3  4  5  17  18  19  20  21  22  23  24  25 0
 3-21G
 ****
 27  28  29  30  38  39  40  41  42  43  44  45 0
 3-21G
 ****


