%nproc=1
%NoSave
%Mem=1900MB
#P OB98/GEN NMR

erre ene a

0 1
  C     -388.057     778.553    -303.448
  O     -387.500     778.214    -304.724
  P     -387.611     776.693    -305.235
  C     -388.477     777.136    -307.627
  O     -388.775     776.607    -306.335
  C     -389.096     778.530    -307.782
  O     -388.588     779.464    -306.800
  C     -388.775     779.172    -309.138
  O     -389.532     778.570    -310.169
  C     -389.083     780.628    -308.861
  O     -390.509     780.888    -309.003
  C     -388.670     780.791    -307.396
  N     -387.398     781.484    -307.229
  C     -387.494     782.849    -306.872
  O     -388.589     783.383    -306.753
  N     -386.336     783.560    -306.677
  C     -385.183     782.979    -306.836
  N     -384.062     783.722    -306.632
  C     -385.047     781.542    -307.219
  C     -386.193     780.878    -307.420
  O     -387.675     775.656    -304.157
  O     -386.276     776.522    -306.129
  H     -390.691     780.945    -309.945
  H     -386.000     775.602    -306.075
  H     -384.052     781.107    -307.327
  H     -386.172     779.837    -307.705
  H     -389.422     781.346    -306.838
  H     -388.583     781.288    -309.564
  H     -387.688     779.058    -309.346
  H     -390.185     778.435    -307.676
  H     -384.204     784.690    -306.376
  H     -388.852     776.457    -308.383
  H     -383.121     783.340    -306.666
  H     -387.380     777.180    -307.740
  P     -388.731     777.824    -311.357
  C     -390.019     775.578    -311.547
  O     -388.826     776.270    -311.129
  O     -387.184     778.157    -311.015
  O     -389.063     778.308    -312.735
  H     -386.681     778.249    -311.837
  H     -389.807     774.518    -311.608
  H     -390.351     775.954    -312.531
  H     -390.804     775.752    -310.823
  H     -387.902     779.594    -303.256
  H     -387.579     777.975    -302.685
  H     -389.106     778.343    -303.450

 3  4  5  6  7  8  9  10  11  12  13  23  27  28  29  30  32 0
 6-311+G(2d,p)
 ****
 34  35 0
 6-311+G(2d,p)
 ****
 1  2  14  15  16  17  18  19  20  21  22  24  25  26 0
 3-21G
 ****
 31  33  36  37  38  39  40  41  42  43  44  45  46 0
 3-21G
 ****


