%nproc=1
%NoSave
%Mem=1900MB
#P OB98/GEN NMR

erre ene a

0 1
  C      256.055    -349.271    -799.257
  O      256.898    -349.137    -800.383
  H      255.048    -349.523    -799.601
  H      256.012    -348.325    -798.709
  H      256.412    -350.065    -798.598
  P      258.452    -348.854    -800.092
  C      258.700    -351.394    -800.554
  O      259.120    -350.285    -799.774
  C      259.911    -352.117    -801.152
  O      260.659    -351.179    -801.987
  C      260.888    -352.680    -800.108
  O      261.425    -353.905    -800.626
  C      262.001    -351.645    -800.091
  O      263.229    -352.169    -799.583
  C      262.038    -351.262    -801.568
  N      265.665    -349.092    -804.291
  C      265.160    -350.376    -804.337
  N      265.695    -351.211    -805.249
  N      264.201    -350.800    -803.558
  C      263.731    -349.845    -802.715
  C      264.152    -348.548    -802.568
  C      265.233    -348.094    -803.421
  O      265.740    -346.980    -803.412
  N      263.441    -347.907    -801.586
  C      262.592    -348.817    -801.140
  N      262.730    -350.009    -801.792
  O      258.418    -348.127    -798.667
  O      259.158    -348.035    -801.122
  H      263.827    -351.413    -799.410
  H      258.400    -347.159    -798.783
  H      266.413    -348.818    -804.904
  H      261.867    -348.666    -800.350
  H      262.534    -352.015    -802.185
  H      261.710    -350.788    -799.469
  H      266.404    -350.941    -805.915
  H      260.447    -352.858    -799.121
  H      265.306    -352.147    -805.329
  H      259.549    -352.907    -801.818
  H      258.059    -351.039    -801.368
  H      258.128    -352.083    -799.926
  P      261.564    -355.148    -799.618
  C      259.897    -356.890    -800.603
  O      260.160    -355.922    -799.591
  O      261.607    -354.438    -798.183
  O      262.768    -356.002    -799.854
  H      262.100    -355.003    -797.555
  H      258.927    -357.314    -800.448
  H      260.636    -357.663    -800.558
  H      259.931    -356.420    -801.564

 6  7  8  9  10  11  12  13  14  15  26  29  33  34 0
 6-311+G(2d,p)
 ****
 36  38  39  40  41 0
 6-311+G(2d,p)
 ****
 1  2  3  4  5  16  17  18  19  20  21  22  23  24  25 0
 3-21G
 ****
 27  28  30  31  32  35  37  42  43  44  45  46  47 0
 3-21G
 ****
 48  49 0
 3-21G
 ****


