%nproc=1
%NoSave
%Mem=1900MB
#P OB98/GEN NMR

erre ene a

0 1
  C     -113.413     232.218      56.485
  O     -114.556     231.400      56.335
  H     -112.531     231.578      56.556
  H     -113.489     232.818      57.396
  H     -113.305     232.873      55.616
  P     -115.972     232.149      56.267
  C     -116.076     232.503      58.819
  O     -115.970     233.126      57.543
  C     -116.721     233.458      59.825
  O     -116.834     232.773      61.100
  C     -115.915     234.740      60.058
  O     -116.815     235.828      60.267
  C     -115.173     234.450      61.353
  O     -114.780     235.639      62.031
  C     -116.197     233.593      62.095
  N     -113.726     233.762      66.543
  C     -114.389     234.705      65.840
  N     -115.042     234.567      64.669
  C     -115.016     233.285      64.259
  C     -114.384     232.216      64.866
  C     -113.701     232.495      66.064
  N     -112.994     231.550      66.770
  N     -114.546     231.069      64.114
  C     -115.273     231.437      63.075
  N     -115.563     232.774      63.111
  O     -117.166     231.263      56.148
  O     -115.751     233.168      55.054
  H     -114.142     235.399      62.735
  H     -114.895     233.633      55.128
  H     -114.386     235.704      66.269
  H     -115.597     230.785      62.270
  H     -116.967     234.196      62.596
  H     -114.266     233.872      61.140
  H     -115.234     234.973      59.240
  H     -117.741     233.684      59.493
  H     -115.083     232.210      59.178
  H     -112.536     231.837      67.620
  H     -112.967     230.598      66.435
  H     -116.686     231.600      58.702
  P     -116.887     237.002      59.179
  C     -114.557     238.007      59.630
  O     -115.394     237.343      58.693
  O     -117.713     238.184      59.555
  O     -117.501     236.257      57.897
  H     -118.159     236.842      57.474
  H     -113.596     238.177      59.192
  H     -114.448     237.399      60.504
  H     -114.997     238.944      59.900

 6  7  8  9  10  11  12  13  14  15  25  28  32  33  34  35 0
 6-311+G(2d,p)
 ****
 36  39  40 0
 6-311+G(2d,p)
 ****
 1  2  3  4  5  16  17  18  19  20  21  22  23  24 0
 3-21G
 ****
 26  27  29  30  31  37  38  41  42  43  44  45  46  47 0
 3-21G
 ****
 48 0
 3-21G
 ****


