%nproc=1
%NoSave
%Mem=1900MB
#P OB98/GEN NMR

erre ene a

0 1
  C     -122.073     250.321    -230.712
  O     -123.425     250.257    -231.184
  P     -123.645     249.542    -232.608
  C     -123.404     251.658    -234.101
  O     -122.861     250.397    -233.722
  C     -122.313     252.650    -234.506
  O     -121.404     252.008    -235.438
  C     -122.821     253.926    -235.186
  O     -122.008     255.031    -234.764
  C     -122.531     253.681    -236.655
  O     -122.441     254.898    -237.395
  C     -121.225     252.899    -236.549
  N     -119.344     253.172    -241.239
  C     -119.390     254.134    -240.248
  N     -118.883     255.346    -240.563
  N     -119.888     253.924    -239.058
  C     -120.328     252.656    -238.873
  C     -120.331     251.614    -239.772
  C     -119.813     251.873    -241.100
  O     -119.795     251.075    -242.038
  N     -120.862     250.476    -239.217
  C     -121.194     250.832    -237.993
  N     -120.895     252.146    -237.738
  O     -125.191     249.823    -232.921
  O     -123.349     248.081    -232.601
  H     -122.126     254.667    -238.288
  H     -125.659     248.981    -233.070
  H     -118.971     253.390    -242.141
  H     -121.668     250.192    -237.262
  H     -120.382     253.561    -236.321
  H     -123.335     253.074    -237.088
  H     -118.427     255.554    -241.440
  H     -123.877     254.149    -234.998
  H     -118.866     256.053    -239.831
  H     -121.732     252.903    -233.614
  H     -123.975     252.073    -233.263
  H     -124.102     251.502    -234.930
  P     -122.633     255.995    -233.646
  C     -124.193     257.280    -235.287
  O     -124.087     256.400    -234.182
  O     -121.782     257.342    -233.795
  O     -122.581     255.439    -232.259
  H     -121.759     257.824    -232.947
  H     -123.228     257.435    -235.782
  H     -124.569     258.245    -234.939
  H     -124.896     256.862    -236.007
  H     -122.050     250.814    -229.763
  H     -121.476     250.867    -231.412
  H     -121.684     249.330    -230.608

 3  4  5  6  7  8  9  10  11  12  23  26  30  31  33  0
 6-311+G(2d,p)
 ****
 35  36  37  38 0
 6-311+G(2d,p)
 ****
 1  2  13  14  15  16  17  18  19  20  21  22  24  25  27  28  29 0
 3-21G
 ****
 32  34  39  40  41  42  43  44  45  46  47  48  49 0
 3-21G
 ****


