%nproc=1
%NoSave
%Mem=1900MB
#P OB98/GEN NMR

erre ene a

0 1
  C       -7.439    -246.410    -133.952
  O       -7.118    -246.221    -135.318
  H       -7.092    -245.540    -133.386
  H       -6.945    -247.303    -133.558
  H       -8.523    -246.499    -133.826
  P       -7.453    -247.396    -136.350
  C       -5.089    -247.253    -137.397
  O       -6.051    -248.071    -136.739
  C       -4.316    -248.064    -138.437
  O       -3.281    -247.256    -139.031
  C       -3.613    -249.292    -137.868
  O       -4.544    -250.325    -137.613
  C       -2.612    -249.578    -138.978
  O       -3.243    -250.240    -140.086
  C       -2.183    -248.141    -139.373
  N       -0.945    -247.704    -138.731
  C        0.239    -247.989    -139.425
  O        0.202    -248.587    -140.501
  N        1.431    -247.599    -138.862
  C        1.444    -246.951    -137.741
  N        2.657    -246.591    -137.243
  C        0.218    -246.599    -136.999
  C       -0.928    -247.012    -137.540
  O       -8.306    -247.022    -137.525
  O       -8.155    -248.516    -135.446
  H       -2.520    -250.528    -140.678
  H       -9.127    -248.418    -135.472
  H        0.272    -246.046    -136.069
  H       -1.880    -246.800    -137.058
  H       -2.044    -248.067    -140.462
  H       -1.792    -250.219    -138.644
  H       -3.057    -249.028    -136.963
  H       -5.015    -248.347    -139.235
  H        3.472    -246.838    -137.796
  H       -4.407    -246.874    -136.630
  H        2.779    -245.949    -136.472
  H       -5.577    -246.395    -137.877
  P       -4.517    -251.155    -136.241
  C       -4.821    -253.449    -137.366
  O       -3.950    -252.611    -136.620
  O       -5.798    -251.161    -135.477
  O       -3.295    -250.510    -135.433
  H       -3.560    -249.644    -135.035
  H       -4.338    -254.385    -137.557
  H       -5.063    -252.976    -138.295
  H       -5.718    -253.618    -136.808

 6  7  8  9  10  11  12  13  14  15  16  26  30  31  32  33  35 0
 6-311+G(2d,p)
 ****
 37  38 0
 6-311+G(2d,p)
 ****
 1  2  3  4  5  17  18  19  20  21  22  23  24  25 0
 3-21G
 ****
 27  28  29  34  36  39  40  41  42  43  44  45  46 0
 3-21G
 ****


