%nproc=1
%NoSave
%Mem=1900MB
#P OB98/GEN NMR

erre ene a

0 1
  C      238.195    -383.636      40.392
  O      238.569    -382.880      41.547
  P      237.477    -381.964      42.275
  C      238.260    -381.812      44.736
  O      238.176    -381.162      43.474
  C      239.213    -381.046      45.661
  O      240.596    -381.347      45.360
  C      239.103    -379.535      45.501
  O      237.912    -378.931      45.966
  C      240.410    -379.052      46.103
  O      240.333    -378.960      47.526
  C      241.382    -380.179      45.684
  N      242.248    -379.794      44.570
  C      243.272    -378.902      44.870
  O      243.438    -378.416      45.987
  N      244.087    -378.556      43.827
  C      243.958    -378.977      42.535
  O      244.703    -378.616      41.633
  C      242.841    -379.897      42.274
  C      242.049    -380.258      43.285
  O      236.195    -382.639      42.624
  O      237.216    -380.802      41.195
  H      239.974    -379.804      47.855
  H      236.257    -380.616      41.183
  H      244.840    -377.917      44.027
  H      242.705    -380.247      41.258
  H      241.221    -380.937      43.115
  H      242.027    -380.460      46.527
  H      240.682    -378.059      45.734
  H      239.147    -379.306      44.427
  H      239.024    -381.355      46.690
  H      238.608    -382.839      44.600
  H      237.256    -381.880      45.169
  P      236.609    -378.740      45.051
  C      235.147    -378.934      47.184
  O      235.406    -378.235      45.986
  O      236.305    -379.810      44.061
  O      236.984    -377.396      44.250
  H      236.585    -377.449      43.360
  H      234.291    -378.466      47.680
  H      236.010    -378.880      47.852
  H      234.900    -379.975      46.972
  H      239.041    -384.187      40.037
  H      237.855    -382.971      39.626
  H      237.410    -384.316      40.649

 3  4  5  6  7  8  9  10  11  12  13  23  28  29  30  31  32 0
 6-311+G(2d,p)
 ****
 33  34 0
 6-311+G(2d,p)
 ****
 1  2  14  15  16  17  18  19  20  21  22  24  25  26  27 0
 3-21G
 ****
 35  36  37  38  39  40  41  42  43  44  45 0
 3-21G
 ****


