%nproc=1
%NoSave
%Mem=1900MB
#P OB98/GEN NMR

erre ene a

0 1
  C     -167.791     385.225     498.773
  O     -167.770     385.246     497.359
  P     -167.726     383.884     496.514
  C     -165.986     382.088     495.943
  O     -166.318     383.161     496.803
  C     -164.625     381.489     496.309
  O     -163.566     382.415     495.912
  C     -164.444     381.182     497.801
  O     -163.699     379.965     497.895
  C     -163.616     382.356     498.292
  O     -162.922     382.054     499.495
  C     -162.732     382.621     497.073
  N     -162.153     383.950     497.081
  C     -160.892     384.086     497.670
  O     -160.385     383.141     498.272
  N     -160.253     385.304     497.582
  C     -160.897     386.327     497.107
  N     -160.206     387.494     496.973
  C     -162.316     386.270     496.708
  C     -162.870     385.053     496.675
  O     -168.058     384.026     495.064
  O     -168.779     382.924     497.252
  H     -169.422     382.590     496.591
  H     -162.332     381.295     499.339
  H     -162.843     387.174     496.441
  H     -163.897     384.908     496.364
  H     -161.924     381.878     497.021
  H     -164.268     383.215     498.488
  H     -165.402     381.066     498.321
  H     -164.483     380.577     495.716
  H     -159.226     387.486     497.225
  H     -165.944     382.472     494.925
  H     -160.511     388.236     496.342
  H     -166.763     381.321     495.982
  P     -164.057     378.947     499.094
  C     -163.718     378.988     501.673
  O     -163.845     379.735     500.485
  O     -162.778     377.968     499.075
  O     -165.311     378.153     498.948
  H     -163.037     377.108     499.463
  H     -163.667     379.680     502.517
  H     -162.808     378.388     501.652
  H     -164.593     378.341     501.814
  H     -167.820     386.228     499.144
  H     -166.911     384.735     499.136
  H     -168.658     384.696     499.109

 3  4  5  6  7  8  9  10  11  12  13  24  27  28  29  30  32 0
 6-311+G(2d,p)
 ****
 34  35 0
 6-311+G(2d,p)
 ****
 1  2  14  15  16  17  18  19  20  21  22  23  25  26 0
 3-21G
 ****
 31  33  36  37  38  39  40  41  42  43  44  45  46 0
 3-21G
 ****


