%nproc=1
%NoSave
%Mem=1900MB
#P OB98/GEN NMR

erre ene a

0 1
  C     -168.937     230.495    -259.794
  O     -167.770     230.403    -258.998
  H     -168.976     229.662    -260.503
  H     -169.811     230.442    -259.140
  H     -168.955     231.447    -260.332
  P     -166.367     230.492    -259.773
  C     -166.180     227.945    -260.233
  O     -166.334     229.246    -260.784
  C     -164.907     227.294    -260.771
  O     -164.619     226.085    -260.039
  C     -164.973     226.881    -262.238
  O     -164.762     227.985    -263.108
  C     -163.820     225.890    -262.305
  O     -162.572     226.602    -262.393
  C     -163.928     225.182    -260.944
  N     -163.528     220.132    -261.674
  C     -162.599     221.110    -261.602
  N     -162.779     222.430    -261.386
  C     -164.084     222.705    -261.214
  C     -165.145     221.813    -261.234
  C     -164.831     220.468    -261.484
  N     -165.799     219.484    -261.625
  N     -166.342     222.472    -261.034
  C     -166.010     223.741    -260.909
  N     -164.657     223.930    -261.005
  O     -165.308     230.093    -258.634
  O     -166.056     231.823    -260.374
  H     -162.448     227.055    -261.537
  H     -164.933     230.905    -258.246
  H     -161.570     220.792    -261.747
  H     -166.711     224.552    -260.757
  H     -162.946     224.978    -260.506
  H     -163.877     225.223    -263.172
  H     -165.909     226.360    -262.468
  H     -164.074     227.991    -260.600
  H     -167.043     227.328    -260.506
  H     -165.519     218.720    -262.235
  H     -166.741     219.839    -261.737
  H     -166.131     228.028    -259.144
  P     -165.434     227.931    -264.563
  C     -163.181     227.541    -265.777
  O     -164.471     227.023    -265.478
  O     -165.201     229.413    -265.119
  O     -166.878     227.564    -264.585
  H     -166.058     229.809    -265.372
  H     -162.649     226.842    -266.388
  H     -162.642     227.702    -264.867
  H     -163.282     228.468    -266.301

 6  7  8  9  10  11  12  13  14  15  25  28  32  33  34  35 0
 6-311+G(2d,p)
 ****
 36  39  40 0
 6-311+G(2d,p)
 ****
 1  2  3  4  5  16  17  18  19  20  21  22  23  24 0
 3-21G
 ****
 26  27  29  30  31  37  38  41  42  43  44  45  46  47  48 0
 3-21G
 ****


