%nproc=1
%NoSave
%Mem=1900MB
#P OB98/GEN NMR

erre ene a

0 1
  C      111.114     -97.169      25.210
  O      111.754     -96.561      26.340
  P      110.845     -95.722      27.360
  C      112.375     -93.656      27.771
  O      111.805     -94.845      28.300
  C      113.498     -93.149      28.681
  O      114.668     -93.987      28.602
  C      113.982     -91.748      28.333
  O      113.135     -90.753      28.888
  C      115.339     -91.726      29.018
  O      115.172     -91.473      30.427
  C      115.839     -93.158      28.793
  N      120.608     -92.546      27.028
  C      120.050     -92.276      28.228
  N      118.768     -92.450      28.617
  C      118.037     -92.974      27.621
  C      118.468     -93.300      26.344
  C      119.822     -93.067      26.057
  N      120.385     -93.344      24.831
  N      117.429     -93.806      25.591
  C      116.392     -93.801      26.405
  N      116.708     -93.298      27.639
  O      110.287     -96.846      28.353
  O      109.734     -94.971      26.703
  H      116.048     -91.590      30.842
  H      109.383     -96.614      28.640
  H      120.721     -91.866      28.978
  H      115.401     -94.148      26.148
  H      116.384     -93.550      29.660
  H      115.994     -90.942      28.630
  H      114.104     -91.634      27.248
  H      113.129     -93.166      29.715
  H      111.605     -92.887      27.663
  H      121.369     -93.176      24.709
  H      119.808     -93.754      24.111
  H      112.750     -93.859      26.763
  P      113.049     -89.349      28.115
  C      113.699     -87.423      29.733
  O      112.677     -88.262      29.231
  O      111.710     -89.496      27.250
  O      114.236     -89.040      27.264
  H      111.783     -88.973      26.429
  H      113.236     -86.568      30.234
  H      114.339     -87.053      28.928
  H      114.304     -87.973      30.460
  H      111.843     -97.690      24.625
  H      110.652     -96.412      24.612
  H      110.370     -97.858      25.550

 3  4  5  6  7  8  9  10  11  12  22  25  29  30  31  32 0
 6-311+G(2d,p)
 ****
 33  36  37 0
 6-311+G(2d,p)
 ****
 1  2  13  14  15  16  17  18  19  20  21  23  24  26 0
 3-21G
 ****
 27  28  34  35  38  39  40  41  42  43  44  45  46  47  48 0
 3-21G
 ****


