%nproc=1
%NoSave
%Mem=1900MB
#P OB98/GEN NMR

erre ene a

0 1
  C      369.700      96.668    -163.183
  O      370.795      97.581    -163.196
  P      370.479      99.152    -163.180
  C      371.239      99.947    -165.518
  O      370.134      99.620    -164.678
  C      370.762     100.213    -166.956
  O      370.293      98.966    -167.533
  C      369.590     101.194    -167.078
  O      369.882     102.583    -167.201
  C      368.976     100.758    -168.407
  O      369.690     101.371    -169.498
  C      369.200      99.249    -168.431
  N      365.371      96.300    -170.112
  C      366.396      96.901    -170.754
  N      367.373      97.673    -170.232
  C      367.231      97.786    -168.903
  C      366.239      97.227    -168.112
  C      365.270      96.453    -168.771
  N      364.218      95.850    -168.120
  N      366.416      97.573    -166.789
  C      367.489      98.341    -166.784
  N      368.026      98.489    -168.034
  O      371.459     100.007    -162.449
  O      369.039      99.207    -162.472
  H      369.616     102.334    -169.371
  H      369.000      99.996    -161.896
  H      366.436      96.748    -171.828
  H      367.908      98.808    -165.904
  H      369.492      98.887    -169.423
  H      367.932     101.069    -168.502
  H      368.868     101.040    -166.266
  H      371.611     100.569    -167.554
  H      371.955      99.124    -165.513
  H      363.542      95.347    -168.673
  H      364.095      96.000    -167.129
  H      371.742     100.807    -165.075
  P      370.147     103.498    -165.914
  C      367.986     104.963    -166.100
  O      368.697     103.958    -165.409
  O      371.115     104.612    -166.117
  O      370.587     102.425    -164.812
  H      369.878     101.826    -164.527
  H      366.956     104.977    -165.735
  H      367.980     104.763    -167.174
  H      368.441     105.940    -165.907
  H      370.072      95.665    -163.196
  H      369.088      96.833    -164.045
  H      369.118      96.821    -162.298

 3  4  5  6  7  8  9  10  11  12  22  25  29  30  31  32 0
 6-311+G(2d,p)
 ****
 33  36  37 0
 6-311+G(2d,p)
 ****
 1  2  13  14  15  16  17  18  19  20  21  23  24  26 0
 3-21G
 ****
 27  28  34  35  38  39  40  41  42  43  44  45  46  47  48 0
 3-21G
 ****


