%nproc=1
%NoSave
%Mem=1900MB
#P OB98/GEN NMR

erre ene a

0 1
  C     -903.243     520.623    -686.188
  O     -903.739     520.803    -684.880
  H     -904.006     520.939    -686.907
  H     -903.017     519.561    -686.358
  H     -902.338     521.222    -686.344
  P     -902.732     520.550    -683.660
  C     -902.673     517.948    -683.705
  O     -903.116     519.118    -683.037
  C     -903.445     516.724    -683.215
  O     -903.240     516.575    -681.782
  C     -904.957     516.811    -683.461
  O     -905.438     515.502    -683.832
  C     -905.519     517.193    -682.104
  O     -906.882     516.784    -681.947
  C     -904.525     516.515    -681.150
  N     -904.522     517.163    -679.842
  C     -904.732     516.335    -678.738
  O     -904.928     515.123    -678.880
  N     -904.786     516.894    -677.488
  C     -904.722     518.196    -677.357
  N     -904.810     518.693    -676.099
  C     -904.564     519.110    -678.510
  C     -904.461     518.537    -679.709
  O     -903.237     521.583    -682.536
  O     -901.285     520.712    -683.984
  H     -907.379     517.078    -682.733
  H     -902.490     521.895    -681.995
  H     -904.531     520.184    -678.345
  H     -904.364     519.124    -680.603
  H     -904.787     515.461    -681.017
  H     -905.482     518.288    -682.001
  H     -905.226     517.517    -684.250
  H     -903.021     515.828    -683.688
  H     -904.925     518.039    -675.335
  H     -901.606     517.804    -683.496
  H     -904.803     519.679    -675.893
  H     -902.805     518.083    -684.787
  P     -905.227     515.058    -685.345
  C     -906.715     516.940    -686.345
  O     -906.509     515.540    -686.193
  O     -905.379     513.465    -685.307
  O     -903.896     515.463    -685.911
  H     -904.509     513.037    -685.420
  H     -907.597     517.110    -686.927
  H     -905.872     517.373    -686.842
  H     -906.831     517.390    -685.381

 6  7  8  9  10  11  12  13  14  15  16  26  30  31  32  33  35 0
 6-311+G(2d,p)
 ****
 37  38 0
 6-311+G(2d,p)
 ****
 1  2  3  4  5  17  18  19  20  21  22  23  24  25 0
 3-21G
 ****
 27  28  29  34  36  39  40  41  42  43  44  45  46 0
 3-21G
 ****


