%nproc=1
%NoSave
%Mem=1900MB
#P OB98/GEN NMR

erre ene a

0 1
  C     -261.367     -82.248     265.944
  O     -262.081     -83.070     266.846
  H     -261.989     -82.075     265.062
  H     -260.440     -82.742     265.633
  H     -261.143     -81.284     266.412
  P     -261.323     -83.476     268.203
  C     -261.241     -85.909     267.317
  O     -260.505     -84.801     267.820
  C     -260.524     -86.532     266.126
  O     -259.806     -85.524     265.391
  C     -259.504     -87.605     266.494
  O     -260.142     -88.853     266.692
  C     -258.628     -87.615     265.247
  O     -259.260     -88.404     264.222
  C     -258.610     -86.131     264.834
  N     -253.797     -84.732     263.726
  C     -254.615     -85.643     263.161
  N     -255.859     -86.002     263.539
  C     -256.254     -85.307     264.622
  C     -255.521     -84.345     265.310
  C     -254.236     -84.059     264.816
  N     -253.399     -83.130     265.400
  N     -256.241     -83.847     266.377
  C     -257.407     -84.452     266.293
  N     -257.453     -85.369     265.270
  O     -262.182     -83.557     269.423
  O     -260.174     -82.362     268.253
  H     -258.863     -88.132     263.371
  H     -259.806     -82.210     267.366
  H     -254.218     -86.152     262.290
  H     -258.262     -84.251     266.932
  H     -258.662     -86.018     263.741
  H     -257.648     -88.052     265.430
  H     -258.896     -87.303     267.360
  H     -261.287     -86.945     265.448
  H     -262.250     -85.588     267.017
  H     -252.438     -83.131     265.102
  H     -253.681     -82.731     266.283
  H     -261.342     -86.641     268.129
  P     -260.229     -89.522     268.145
  C     -257.928     -90.486     267.516
  O     -258.708     -89.869     268.533
  O     -261.199     -90.647     268.255
  O     -260.580     -88.303     269.117
  H     -260.911     -88.643     269.976
  H     -256.941     -90.669     267.885
  H     -257.876     -89.840     266.665
  H     -258.380     -91.413     267.233

 6  7  8  9  10  11  12  13  14  15  25  28  32  33  34  35 0
 6-311+G(2d,p)
 ****
 36  39  40 0
 6-311+G(2d,p)
 ****
 1  2  3  4  5  16  17  18  19  20  21  22  23  24 0
 3-21G
 ****
 26  27  29  30  31  37  38  41  42  43  44  45  46  47 0
 3-21G
 ****
 48 0
 3-21G
 ****


