%nproc=1
%NoSave
%Mem=1900MB
#P OB98/GEN NMR

erre ene a

0 1
  C      980.237     833.972    -455.356
  O      978.964     833.871    -454.696
  P      978.861     833.066    -453.315
  C      976.413     833.842    -452.809
  O      977.320     832.758    -452.958
  C      975.713     834.165    -454.140
  O      975.197     832.939    -454.749
  C      974.544     835.149    -454.020
  O      974.501     835.914    -455.238
  C      973.337     834.207    -453.956
  O      972.116     834.830    -454.287
  C      973.788     833.140    -454.961
  N      973.069     831.878    -454.845
  C      971.771     831.812    -455.356
  O      971.163     832.763    -455.843
  N      971.148     830.600    -455.262
  C      971.680     829.452    -454.683
  O      971.066     828.384    -454.611
  C      973.035     829.591    -454.152
  C      973.649     830.772    -454.256
  O      979.248     834.183    -452.235
  O      979.799     831.892    -453.204
  H      971.410     834.152    -454.200
  H      979.880     833.826    -451.609
  H      970.219     830.524    -455.637
  H      973.488     828.720    -453.700
  H      974.668     830.889    -453.866
  H      973.679     833.529    -455.980
  H      973.248     833.815    -452.941
  H      974.620     835.806    -453.156
  H      976.479     834.566    -454.834
  H      976.970     834.736    -452.467
  H      975.679     833.593    -452.043
  P      974.923     837.470    -455.158
  C      976.142     837.534    -457.480
  O      975.091     837.972    -456.674
  O      976.451     837.323    -454.681
  O      974.087     838.302    -454.258
  H      976.931     836.640    -455.163
  H      976.338     836.460    -457.335
  H      977.047     838.083    -457.254
  H      975.898     837.699    -458.515
  H      980.128     834.538    -456.257
  H      980.595     832.992    -455.592
  H      980.936     834.461    -454.710

 3  4  5  6  7  8  9  10  11  12  13  23  28  29  30  31  32 0
 6-311+G(2d,p)
 ****
 33  34 0
 6-311+G(2d,p)
 ****
 1  2  14  15  16  17  18  19  20  21  22  24  25  26 0
 3-21G
 ****
 27  35  36  37  38  39  40  41  42  43  44  45 0
 3-21G
 ****


