%nproc=1
%NoSave
%Mem=1900MB
#P OB98/GEN NMR

erre ene a

0 1
  C       26.965     -36.263     -17.422
  O       27.577     -35.018     -17.705
  H       26.850     -36.357     -16.339
  H       27.579     -37.091     -17.784
  H       25.975     -36.304     -17.884
  P       28.107     -34.759     -19.198
  C       29.844     -35.903     -20.725
  O       29.333     -35.781     -19.400
  C       30.779     -37.106     -20.850
  O       30.065     -38.336     -20.598
  C       31.383     -37.285     -22.235
  O       32.285     -36.273     -22.620
  C       31.860     -38.729     -22.184
  O       33.131     -38.860     -21.548
  C       30.760     -39.383     -21.312
  N       29.842     -40.201     -22.098
  C       29.859     -41.565     -21.830
  O       30.607     -42.087     -21.003
  N       29.001     -42.329     -22.575
  C       28.185     -41.877     -23.570
  O       27.454     -42.620     -24.217
  C       28.239     -40.431     -23.836
  C       29.052     -39.668     -23.097
  O       28.444     -33.335     -19.527
  O       26.962     -35.380     -20.126
  H       33.240     -39.804     -21.323
  H       27.050     -35.069     -21.060
  H       28.988     -43.320     -22.385
  H       27.615     -40.039     -24.627
  H       29.109     -38.597     -23.273
  H       31.217     -40.029     -20.547
  H       31.949     -39.168     -23.181
  H       30.568     -37.254     -22.970
  H       31.557     -37.012     -20.085
  H       30.402     -34.988     -20.953
  H       29.010     -35.997     -21.430
  P       32.802     -36.067     -24.114
  C       34.328     -37.368     -25.796
  O       33.815     -37.257     -24.472
  O       33.183     -34.676     -24.507
  O       31.492     -36.475     -24.970
  H       31.485     -35.911     -25.770
  H       34.983     -38.212     -25.855
  H       34.869     -36.479     -26.045
  H       33.518     -37.497     -26.483

 6  7  8  9  10  11  12  13  14  15  16  26  31  32  33  34  35 0
 6-311+G(2d,p)
 ****
 36  37 0
 6-311+G(2d,p)
 ****
 1  2  3  4  5  17  18  19  20  21  22  23  24  25 0
 3-21G
 ****
 27  28  29  30  38  39  40  41  42  43  44  45 0
 3-21G
 ****


