%nproc=1
%NoSave
%Mem=1900MB
#P OB98/GEN NMR

erre ene a

0 1
  C     -131.034    -738.331    -350.639
  O     -131.396    -737.186    -351.389
  H     -131.341    -739.223    -351.186
  H     -131.530    -738.327    -349.666
  H     -129.944    -738.364    -350.500
  P     -131.152    -735.742    -350.744
  C     -128.968    -734.646    -349.893
  O     -129.585    -735.424    -350.909
  C     -127.462    -734.510    -350.143
  O     -126.845    -735.824    -350.022
  C     -127.116    -733.975    -351.548
  O     -125.874    -733.266    -351.444
  C     -126.922    -735.273    -352.320
  O     -126.279    -735.045    -353.553
  C     -126.180    -736.107    -351.273
  N     -126.194    -737.528    -351.591
  C     -125.061    -738.029    -352.231
  O     -124.122    -737.277    -352.508
  N     -125.015    -739.361    -352.562
  C     -126.051    -740.117    -352.334
  N     -125.954    -741.415    -352.707
  C     -127.294    -739.611    -351.714
  C     -127.291    -738.324    -351.359
  O     -131.693    -735.547    -349.365
  O     -131.833    -734.735    -351.789
  H     -125.353    -734.738    -353.416
  H     -132.682    -734.413    -351.427
  H     -128.134    -740.269    -351.561
  H     -128.163    -737.867    -350.894
  H     -125.136    -735.777    -351.176
  H     -127.890    -735.726    -352.558
  H     -127.895    -733.330    -351.965
  H     -127.025    -733.874    -349.369
  H     -125.083    -741.717    -353.141
  H     -129.144    -735.152    -348.939
  H     -126.696    -742.087    -352.596
  H     -129.427    -733.650    -349.851
  P     -125.564    -731.948    -352.304
  C     -127.256    -730.104    -352.965
  O     -126.604    -730.788    -351.898
  O     -125.462    -732.178    -353.777
  O     -124.166    -731.396    -351.729
  H     -123.683    -730.954    -352.450
  H     -127.916    -729.363    -352.564
  H     -127.818    -730.804    -353.547
  H     -126.524    -729.631    -353.585

 6  7  8  9  10  11  12  13  14  15  16  26  30  31  32  33  35 0
 6-311+G(2d,p)
 ****
 37  38 0
 6-311+G(2d,p)
 ****
 1  2  3  4  5  17  18  19  20  21  22  23  24  25 0
 3-21G
 ****
 27  28  29  34  36  39  40  41  42  43  44  45  46 0
 3-21G
 ****


