%nproc=1
%NoSave
%Mem=1900MB
#P OB98/GEN NMR

erre ene a

0 1
  C     -338.001      70.248     -59.575
  O     -339.265      69.585     -59.698
  P     -339.960      69.071     -58.344
  C     -341.947      70.741     -58.022
  O     -341.514      69.468     -58.471
  C     -342.856      71.409     -59.064
  O     -342.219      71.352     -60.378
  C     -344.244      70.773     -59.194
  O     -345.174      71.844     -59.435
  C     -344.110      69.901     -60.429
  O     -345.373      69.616     -61.020
  C     -343.178      70.771     -61.285
  N     -342.523      70.011     -62.351
  C     -343.101      70.076     -63.618
  O     -344.155      70.663     -63.843
  N     -342.440      69.398     -64.605
  C     -341.333      68.609     -64.444
  O     -340.784      68.026     -65.366
  C     -340.839      68.487     -63.058
  C     -341.447      69.184     -62.094
  O     -339.369      70.096     -57.272
  O     -339.688      67.629     -58.059
  H     -339.270      71.003     -57.619
  H     -345.997      69.335     -60.318
  H     -342.823      69.455     -65.538
  H     -339.999      67.826     -62.879
  H     -341.121      69.099     -61.064
  H     -343.741      71.593     -61.742
  H     -343.628      68.952     -60.171
  H     -344.550      70.218     -58.297
  H     -342.957      72.469     -58.798
  H     -341.082      71.389     -57.843
  H     -342.468      70.631     -57.059
  P     -346.388      72.044     -58.393
  C     -345.605      73.994     -56.825
  O     -346.371      73.580     -57.940
  O     -345.788      71.279     -57.114
  O     -347.702      71.483     -58.839
  H     -344.872      71.530     -56.918
  H     -345.533      75.085     -56.833
  H     -344.592      73.581     -56.868
  H     -346.092      73.671     -55.899
  H     -337.653      70.536     -60.545
  H     -337.293      69.585     -59.125
  H     -338.113      71.119     -58.963

 3  4  5  6  7  8  9  10  11  12  13  24  28  29  30  31  32 0
 6-311+G(2d,p)
 ****
 33  34 0
 6-311+G(2d,p)
 ****
 1  2  14  15  16  17  18  19  20  21  22  23  25  26  27 0
 3-21G
 ****
 35  36  37  38  39  40  41  42  43  44  45 0
 3-21G
 ****


