%nproc=1
%NoSave
%Mem=1900MB
#P OB98/GEN NMR

erre ene a

0 1
  C     -112.982     -46.985     344.143
  O     -112.411     -47.443     345.383
  P     -112.160     -46.381     346.566
  C     -110.500     -44.410     347.036
  O     -110.890     -45.477     346.183
  C     -109.021     -44.552     347.425
  O     -108.851     -45.630     348.373
  C     -108.100     -44.889     346.263
  O     -107.830     -43.760     345.451
  C     -106.872     -45.418     347.001
  O     -106.035     -44.333     347.440
  C     -107.508     -46.142     348.202
  N     -107.501     -47.594     348.058
  C     -106.277     -48.226     348.234
  O     -105.228     -47.624     348.455
  N     -106.291     -49.592     348.131
  C     -107.374     -50.363     347.796
  O     -107.316     -51.580     347.697
  C     -108.619     -49.627     347.535
  C     -108.623     -48.300     347.675
  O     -111.560     -47.312     347.729
  O     -113.366     -45.644     347.046
  H     -106.589     -43.768     348.018
  H     -111.771     -46.922     348.599
  H     -105.425     -50.080     348.288
  H     -109.494     -50.197     347.245
  H     -109.537     -47.741     347.487
  H     -106.974     -45.881     349.126
  H     -106.253     -46.065     346.372
  H     -108.531     -45.707     345.665
  H     -108.707     -43.617     347.909
  H     -111.114     -44.428     347.938
  H     -110.673     -43.458     346.518
  P     -108.779     -43.540     344.176
  C     -108.985     -44.807     341.893
  O     -108.489     -44.794     343.214
  O     -108.058     -42.295     343.466
  O     -110.212     -43.313     344.539
  H     -107.092     -42.315     343.588
  H     -109.009     -43.801     341.463
  H     -109.995     -45.233     341.888
  H     -108.331     -45.429     341.276
  H     -113.082     -47.811     343.470
  H     -112.343     -46.245     343.708
  H     -113.946     -46.559     344.330

 3  4  5  6  7  8  9  10  11  12  13  23  28  29  30  31  32 0
 6-311+G(2d,p)
 ****
 33  34 0
 6-311+G(2d,p)
 ****
 1  2  14  15  16  17  18  19  20  21  22  24  25  26 0
 3-21G
 ****
 27  35  36  37  38  39  40  41  42  43  44  45 0
 3-21G
 ****


