%nproc=1
%NoSave
%Mem=1900MB
#P OB98/GEN NMR

erre ene a

0 1
  C      350.365     -35.809       0.643
  O      350.572     -36.906       1.535
  P      349.383     -37.223       2.572
  C      350.270     -35.717       4.481
  O      349.221     -35.976       3.562
  C      350.299     -34.251       4.929
  O      351.239     -34.057       6.017
  C      350.713     -33.285       3.810
  O      349.986     -32.064       4.017
  C      352.172     -33.035       4.086
  O      352.629     -31.828       3.473
  C      352.181     -33.035       5.623
  N      353.506     -33.277       6.194
  C      353.830     -32.573       7.359
  O      353.046     -31.737       7.819
  N      355.047     -32.794       7.954
  C      355.892     -33.613       7.406
  N      357.085     -33.790       8.042
  C      355.617     -34.329       6.149
  C      354.414     -34.122       5.610
  O      350.001     -38.374       3.500
  O      348.122     -37.681       1.907
  H      352.244     -31.785       2.568
  H      349.376     -39.121       3.565
  H      356.364     -34.989       5.713
  H      354.122     -34.605       4.690
  H      351.816     -32.079       6.012
  H      352.783     -33.872       3.698
  H      350.503     -33.668       2.804
  H      349.303     -33.990       5.298
  H      357.233     -33.284       8.910
  H      351.232     -35.972       4.022
  H      357.814     -34.398       7.704
  H      350.159     -36.385       5.346
  P      348.856     -31.656       2.957
  C      350.415     -30.162       1.557
  O      349.656     -31.358       1.598
  O      348.486     -30.168       3.437
  O      347.639     -32.513       2.853
  H      347.745     -29.824       2.915
  H      350.997     -30.145       0.640
  H      351.099     -30.119       2.411
  H      349.745     -29.299       1.572
  H      351.219     -35.700       0.008
  H      350.223     -34.912       1.208
  H      349.497     -35.994       0.045

 3  4  5  6  7  8  9  10  11  12  13  21  23  27  28  29  30  32 0
 6-311+G(2d,p)
 ****
 34  35 0
 6-311+G(2d,p)
 ****
 1  2  14  15  16  17  18  19  20  22  24  25  26 0
 3-21G
 ****
 31  33  36  37  38  39  40  41  42  43  44  45  46 0
 3-21G
 ****


