%nproc=1
%NoSave
%Mem=1900MB
#P OB98/GEN NMR

erre ene a

0 1
  C      337.823     -83.061     144.082
  O      337.942     -82.126     143.019
  P      336.692     -81.977     142.020
  C      338.477     -81.066     140.371
  O      337.327     -81.882     140.547
  C      338.841     -80.963     138.893
  O      339.440     -82.193     138.451
  C      337.655     -80.729     137.968
  O      337.267     -79.366     137.939
  C      338.239     -81.166     136.630
  O      339.011     -80.089     136.067
  C      339.151     -82.335     137.035
  N      338.215     -85.949     133.614
  C      338.870     -84.743     133.467
  N      339.369     -84.469     132.243
  N      339.024     -83.874     134.436
  C      338.508     -84.297     135.614
  C      337.836     -85.470     135.887
  C      337.631     -86.399     134.791
  O      337.002     -87.453     134.846
  N      337.476     -85.549     137.206
  C      337.960     -84.450     137.747
  N      338.569     -83.637     136.812
  O      336.181     -80.484     142.297
  O      335.602     -82.978     142.211
  H      338.424     -79.309     136.030
  H      335.234     -80.405     142.068
  H      338.147     -86.588     132.839
  H      337.895     -84.194     138.792
  H      340.113     -82.287     136.508
  H      337.470     -81.428     135.896
  H      339.403     -85.154     131.496
  H      336.812     -81.382     138.234
  H      339.888     -83.608     132.126
  H      339.580     -80.160     138.777
  H      339.323     -81.510     140.913
  H      338.278     -80.075     140.790
  P      335.706     -79.055     138.175
  C      336.283     -76.538     137.871
  O      335.454     -77.624     137.500
  O      335.625     -78.764     139.747
  O      334.786     -80.156     137.752
  H      334.723     -78.959     140.076
  H      337.312     -76.868     138.045
  H      335.890     -76.076     138.778
  H      336.284     -75.803     137.062
  H      338.721     -83.056     144.663
  H      337.664     -84.040     143.680
  H      336.995     -82.791     144.703

 3  4  5  6  7  8  9  10  11  12  23  26  30  31  33  0
 6-311+G(2d,p)
 ****
 35  36  37  38 0
 6-311+G(2d,p)
 ****
 1  2  13  14  15  16  17  18  19  20  21  22  24  25  27  28  29 0
 3-21G
 ****
 32  34  39  40  41  42  43  44  45  46  47  48  49 0
 3-21G
 ****


