%nproc=1
%NoSave
%Mem=1900MB
#P OB98/GEN NMR

erre ene a

0 1
  C       29.656      97.101     -40.273
  O       28.662      97.570     -41.163
  H       30.514      96.757     -40.855
  H       29.267      96.266     -39.685
  H       29.978      97.906     -39.608
  P       27.328      98.161     -40.498
  C       26.660     100.364     -41.722
  O       26.565      98.948     -41.669
  C       28.061     100.783     -42.183
  O       28.255     100.326     -43.554
  C       28.279     102.305     -42.182
  O       29.671     102.565     -41.930
  C       27.957     102.665     -43.622
  O       28.454     103.944     -43.934
  C       28.611     101.486     -44.334
  N       29.285     103.128     -49.113
  C       29.938     103.404     -47.964
  N       29.702     102.916     -46.729
  C       28.687     102.036     -46.755
  C       27.926     101.656     -47.846
  C       28.255     102.250     -49.076
  N       27.579     101.991     -50.246
  N       26.953     100.749     -47.467
  C       27.131     100.581     -46.171
  N       28.168     101.337     -45.701
  O       27.878      99.328     -39.550
  O       26.490      97.179     -39.751
  H       28.128     104.614     -43.299
  H       28.028      98.982     -38.651
  H       30.759     104.111     -48.047
  H       26.540      99.940     -45.532
  H       29.705     101.561     -44.347
  H       26.877     102.681     -43.792
  H       27.668     102.831     -41.446
  H       28.810     100.270     -41.569
  H       26.460     100.763     -40.724
  H       25.916     100.752     -42.423
  H       27.862     102.480     -51.079
  H       26.787     101.364     -50.228
  P       30.106     103.173     -40.508
  C       32.422     101.973     -40.466
  O       31.704     103.193     -40.371
  O       29.695     101.995     -39.502
  O       29.421     104.444     -40.118
  H       29.226     102.367     -38.732
  H       33.469     102.165     -40.353
  H       32.242     101.527     -41.422
  H       32.097     101.307     -39.694

 6  7  8  9  10  11  12  13  14  15  25  28  32  33  34  35 0
 6-311+G(2d,p)
 ****
 36  37  40 0
 6-311+G(2d,p)
 ****
 1  2  3  4  5  16  17  18  19  20  21  22  23  24 0
 3-21G
 ****
 26  27  29  30  31  38  39 41  42  43  44  45  46  47  48 0
 3-21G
 ****


