%nproc=1
%NoSave
%Mem=1900MB
#P OB98/GEN NMR

erre ene a

0 1
  C     -400.193    -536.642     227.161
  O     -401.407    -537.288     226.760
  P     -402.337    -536.530     225.699
  C     -403.852    -535.159     227.309
  O     -402.822    -535.132     226.344
  C     -403.973    -533.824     228.058
  O     -404.366    -532.762     227.140
  C     -405.011    -533.832     229.187
  O     -404.586    -532.916     230.192
  C     -406.246    -533.268     228.500
  O     -407.202    -532.792     229.453
  C     -405.604    -532.196     227.616
  N     -410.092    -530.251     226.375
  C     -409.544    -530.526     227.622
  N     -410.304    -530.210     228.697
  N     -408.374    -531.074     227.800
  C     -407.725    -531.306     226.623
  C     -408.144    -531.084     225.346
  C     -409.460    -530.516     225.158
  O     -410.003    -530.265     224.096
  N     -407.212    -531.483     224.419
  C     -406.214    -531.935     225.151
  N     -406.456    -531.831     226.484
  O     -403.681    -537.422     225.697
  O     -401.754    -536.438     224.329
  H     -407.426    -533.556     230.032
  H     -403.745    -537.925     224.871
  H     -411.008    -529.854     226.304
  H     -405.295    -532.372     224.766
  H     -405.375    -531.290     228.168
  H     -406.728    -534.047     227.895
  H     -411.198    -529.740     228.636
  H     -405.189    -534.810     229.638
  H     -409.908    -530.371     229.618
  H     -402.980    -533.558     228.446
  H     -403.658    -535.966     228.045
  H     -404.794    -535.434     226.826
  P     -404.399    -533.499     231.667
  C     -406.818    -533.477     232.620
  O     -405.768    -534.246     232.046
  O     -404.427    -532.170     232.600
  O     -403.155    -534.280     231.872
  H     -403.945    -532.336     233.430
  H     -407.590    -533.287     231.843
  H     -406.458    -532.538     233.013
  H     -407.272    -534.076     233.422
  H     -399.677    -537.259     227.867
  H     -400.423    -535.699     227.611
  H     -399.572    -536.486     226.304

 3  4  5  6  7  8  9  10  11  12  23  26  30  31 0
 6-311+G(2d,p)
 ****
 33  35  36  37  38 0
 6-311+G(2d,p)
 ****
 1  2  13  14  15  16  17  18  19  20  21  22  24  25 0
 3-21G
 ****
 27  28  29  32  34  39  40  41  42  43  44  45  46  47  48  49 0
 3-21G
 ****


