%nproc=1
%NoSave
%Mem=1900MB
#P OB98/GEN NMR

erre ene a

0 1
  C     -307.737     374.951     726.163
  O     -308.191     375.385     724.885
  P     -309.758     375.687     724.711
  C     -309.955     377.595     722.926
  O     -309.938     376.202     723.204
  C     -308.927     377.943     721.841
  O     -307.582     377.726     722.344
  C     -309.032     377.075     720.594
  O     -310.143     377.450     719.801
  C     -307.679     377.324     719.965
  O     -307.664     378.575     719.256
  C     -306.760     377.419     721.197
  N     -305.963     376.209     721.430
  C     -304.705     376.184     720.811
  O     -304.289     377.100     720.105
  N     -303.958     375.063     721.026
  C     -304.339     373.975     721.757
  O     -303.622     373.001     721.932
  C     -305.692     374.038     722.339
  C     -306.432     375.135     722.155
  O     -309.912     377.007     725.600
  O     -310.622     374.543     725.116
  H     -309.124     377.590     725.565
  H     -308.398     378.538     718.616
  H     -303.036     375.035     720.610
  H     -306.041     373.179     722.901
  H     -307.442     375.198     722.562
  H     -306.067     378.264     721.089
  H     -307.393     376.530     719.251
  H     -309.127     376.016     720.868
  H     -309.039     378.994     721.589
  H     -309.730     378.170     723.829
  H     -310.969     377.881     722.613
  P     -311.266     376.322     719.540
  C     -313.369     377.736     720.231
  O     -312.630     377.119     719.200
  O     -311.501     375.782     721.024
  O     -310.861     375.297     718.548
  H     -311.565     376.479     721.693
  H     -314.029     378.486     719.785
  H     -312.714     378.230     720.945
  H     -313.984     376.990     720.750
  H     -306.680     374.790     726.130
  H     -308.229     374.038     726.425
  H     -307.961     375.699     726.894

 3  4  5  6  7  8  9  10  11  12  13  24  28  29  30  31  32 0
 6-311+G(2d,p)
 ****
 33  34 0
 6-311+G(2d,p)
 ****
 1  2  14  15  16  17  18  19  20  21  22  23  25  26  27 0
 3-21G
 ****
 35  36  37  38  39  40  41  42  43  44  45 0
 3-21G
 ****


