%nproc=1
%NoSave
%Mem=1900MB
#P OB98/GEN NMR

erre ene a

0 1
  C     -548.123    -893.570    -252.217
  O     -547.397    -892.620    -251.464
  H     -548.569    -893.060    -253.082
  H     -548.929    -894.010    -251.625
  H     -547.455    -894.350    -252.583
  P     -546.773    -893.080    -250.056
  C     -544.445    -893.780    -250.917
  O     -545.702    -894.230    -250.390
  C     -543.452    -894.950    -250.987
  O     -543.285    -895.490    -249.633
  C     -543.897    -896.110    -251.894
  O     -542.752    -896.630    -252.551
  C     -544.452    -897.110    -250.904
  O     -544.444    -898.430    -251.433
  C     -543.582    -896.890    -249.666
  N     -544.240    -897.360    -248.450
  C     -544.020    -898.680    -248.094
  O     -543.289    -899.410    -248.768
  N     -544.686    -899.190    -246.988
  C     -545.534    -898.450    -246.353
  N     -546.183    -899.020    -245.323
  C     -545.815    -897.040    -246.724
  C     -545.140    -896.560    -247.749
  O     -547.755    -893.430    -248.987
  O     -545.865    -891.830    -249.628
  H     -543.526    -898.680    -251.644
  H     -546.384    -891.200    -249.082
  H     -546.538    -896.460    -246.171
  H     -545.274    -895.530    -248.132
  H     -542.636    -897.430    -249.774
  H     -545.516    -896.850    -250.668
  H     -544.668    -895.790    -252.631
  H     -542.477    -894.560    -251.290
  H     -545.982    -900.000    -245.098
  H     -544.072    -893.010    -250.255
  H     -546.910    -898.540    -244.765
  H     -544.592    -893.380    -251.918
  P     -542.686    -896.690    -254.153
  C     -540.863    -894.880    -254.052
  O     -542.075    -895.300    -254.702
  O     -543.948    -897.130    -254.823
  O     -541.500    -897.750    -254.443
  H     -541.679    -898.200    -255.280
  H     -540.532    -893.955    -254.477
  H     -540.108    -895.626    -254.189
  H     -541.047    -894.746    -253.006

 6  7  8  9  10  11  12  13  14  15  16  26  30  31  32  33  35 0
 6-311+G(2d,p)
 ****
 37  38 0
 6-311+G(2d,p)
 ****
 1  2  3  4  5  17  18  19  20  21  22  23  24  25 0
 3-21G
 ****
 27  28  29  34  36  39  40  41  42  43  44  45  46 0
 3-21G
 ****


