%nproc=1
%NoSave
%Mem=1900MB
#P OB98/GEN NMR

erre ene a

0 1
  C      730.613    -893.000    -692.934
  O      730.038    -892.660    -691.697
  P      728.456    -892.720    -691.501
  C      728.397    -894.470    -689.608
  O      728.057    -894.200    -690.964
  C      728.426    -895.960    -689.245
  O      727.105    -896.540    -689.417
  C      729.395    -896.800    -690.122
  O      729.895    -897.820    -689.224
  C      728.490    -897.380    -691.193
  O      729.077    -898.510    -691.849
  C      727.212    -897.640    -690.400
  N      726.037    -897.710    -691.254
  C      725.541    -899.000    -691.550
  O      726.151    -900.000    -691.114
  N      724.456    -899.110    -692.359
  C      723.919    -898.010    -692.858
  N      722.815    -898.220    -693.647
  C      724.459    -896.680    -692.642
  C      725.477    -896.580    -691.836
  O      727.644    -892.230    -692.655
  O      728.194    -891.810    -690.196
  H      729.229    -899.190    -691.155
  H      727.311    -891.400    -690.288
  H      723.998    -895.820    -693.101
  H      725.935    -895.660    -691.612
  H      727.307    -898.560    -689.804
  H      728.318    -896.580    -691.954
  H      730.253    -896.240    -690.497
  H      728.696    -896.020    -688.200
  H      722.510    -899.160    -693.825
  H      727.690    -893.940    -688.967
  H      722.421    -897.480    -694.218
  H      729.415    -894.010    -689.384
  P      731.356    -897.830    -688.599
  C      730.236    -897.570    -686.310
  O      731.227    -897.070    -687.168
  O      732.414    -897.280    -689.485
  O      731.618    -899.370    -688.153
  H      732.600    -899.480    -688.066
  H      730.379    -897.160    -685.289
  H      730.237    -898.670    -686.223
  H      729.232    -897.270    -686.632
  H      731.677    -892.900    -692.873
  H      730.237    -892.347    -693.694
  H      730.364    -894.012    -693.177

 3  4  5  6  7  8  9  10  11  12  13  23  27  28  29  30  32 0
 6-311+G(2d,p)
 ****
 34  35 0
 6-311+G(2d,p)
 ****
 1  2  14  15  16  17  18  19  20  21  22  24  25  26 0
 3-21G
 ****
 31  33  36  37  38  39  40  41  42  43  44  45  46 0
 3-21G
 ****


