%nproc=1
%NoSave
%Mem=1900MB
#P OB98/GEN NMR

erre ene a

0 1
  C       65.533     -45.274      22.821
  O       65.382     -43.906      22.499
  H       65.840     -45.356      23.867
  H       66.303     -45.735      22.195
  H       64.584     -45.802      22.693
  P       65.013     -43.512      20.992
  C       67.455     -43.379      20.150
  O       66.208     -44.060      20.076
  C       68.541     -44.166      19.419
  O       68.718     -45.460      20.026
  C       68.233     -44.435      17.950
  O       68.421     -43.266      17.178
  C       69.203     -45.569      17.666
  O       70.535     -45.072      17.469
  C       69.112     -46.381      18.982
  N       68.188     -47.509      18.908
  C       68.471     -48.474      17.934
  O       69.442     -48.339      17.191
  N       67.630     -49.555      17.822
  C       66.628     -49.686      18.633
  N       65.838     -50.781      18.471
  C       66.315     -48.709      19.693
  C       67.120     -47.651      19.767
  O       64.658     -42.076      20.752
  O       63.798     -44.489      20.625
  H       70.514     -44.558      16.637
  H       62.943     -44.049      20.793
  H       65.475     -48.864      20.354
  H       66.960     -46.886      20.519
  H       70.101     -46.771      19.260
  H       68.935     -46.129      16.769
  H       67.211     -44.818      17.840
  H       69.487     -43.618      19.529
  H       66.104     -51.434      17.741
  H       67.709     -43.285      21.212
  H       65.136     -51.068      19.138
  H       67.371     -42.371      19.727
  P       67.476     -42.923      15.928
  C       69.461     -43.561      14.422
  O       68.079     -43.746      14.688
  O       67.263     -41.470      15.674
  O       66.126     -43.720      16.247
  H       65.595     -43.239      16.931
  H       69.745     -44.156      13.580
  H       70.032     -43.858      15.277
  H       69.648     -42.529      14.209

 6  7  8  9  10  11  12  13  14  15  16  26  30  31  32  33  35 0
 6-311+G(2d,p)
 ****
 37  38 0
 6-311+G(2d,p)
 ****
 1  2  3  4  5  17  18  19  20  21  22  23  24  25 0
 3-21G
 ****
 27  28  29  34  36  39  40  41  42  43  44  45  46 0
 3-21G
 ****


