%nproc=1
%NoSave
%Mem=1900MB
#P OB98/GEN NMR

erre ene a

0 1
  C        9.053     116.372      -9.269
  O        9.466     115.508     -10.306
  H        8.343     117.095      -9.677
  H        9.913     116.912      -8.866
  H        8.562     115.806      -8.474
  P       10.499     114.340      -9.919
  C        8.755     112.412      -9.794
  O        9.840     112.994     -10.504
  C        8.266     111.149     -10.507
  O        7.418     111.529     -11.617
  C        9.402     110.287     -11.059
  O        9.124     108.911     -10.792
  C        9.383     110.559     -12.552
  O        9.917     109.473     -13.308
  C        7.902     110.868     -12.802
  N        7.713     111.700     -13.988
  C        7.011     111.128     -15.053
  O        6.596     109.970     -14.971
  N        6.843     111.856     -16.203
  C        7.381     113.030     -16.307
  N        7.197     113.693     -17.480
  C        8.170     113.654     -15.227
  C        8.291     112.944     -14.107
  O       10.306     114.199      -8.339
  O       11.912     114.575     -10.340
  H       10.824     109.292     -12.977
  H       11.030     113.665      -7.933
  H        8.614     114.629     -15.365
  H        8.855     113.322     -13.261
  H        7.329     109.940     -12.929
  H        9.991     111.447     -12.767
  H       10.372     110.538     -10.633
  H        7.636     110.581      -9.813
  H        6.660     113.230     -18.201
  H        7.940     113.139      -9.733
  H        7.596     114.599     -17.681
  H        9.085     112.156      -8.782
  P       10.353     108.043     -10.229
  C        9.757     107.701      -7.729
  O        9.792     107.134      -9.029
  O       11.270     109.127      -9.494
  O       11.091     107.296     -11.290
  H       12.014     109.389     -10.067
  H        9.363     106.985      -7.038
  H        9.134     108.571      -7.736
  H       10.748     107.975      -7.433

 6  7  8  9  10  11  12  13  14  15  16  26  30  31  32  33  35 0
 6-311+G(2d,p)
 ****
 37  38 0
 6-311+G(2d,p)
 ****
 1  2  3  4  5  17  18  19  20  21  22  23  24  25 0
 3-21G
 ****
 27  28  29  34  36  39  40  41  42  43  44  45  46 0
 3-21G
 ****


