%nproc=1
%NoSave
%Mem=1900MB
#P OB98/GEN NMR

erre ene a

0 1
  C      701.564    -362.747    -282.697
  O      700.533    -363.708    -282.881
  P      699.744    -363.725    -284.276
  C      700.334    -366.228    -284.912
  O      700.350    -364.852    -285.232
  C      701.202    -366.991    -285.917
  O      702.518    -366.393    -286.001
  C      701.405    -368.459    -285.556
  O      700.351    -369.274    -286.050
  C      702.748    -368.761    -286.189
  O      702.603    -368.958    -287.606
  C      703.520    -367.449    -285.895
  N      704.204    -367.324    -284.593
  C      705.566    -367.590    -284.501
  O      706.270    -367.947    -285.447
  N      706.130    -367.427    -283.264
  C      705.534    -366.873    -282.173
  O      706.107    -366.697    -281.100
  C      704.137    -366.465    -282.362
  C      703.545    -366.714    -283.536
  O      700.173    -362.357    -284.976
  O      698.257    -363.839    -284.142
  H      702.046    -369.743    -287.732
  H      699.408    -361.766    -285.076
  H      707.097    -367.683    -283.159
  H      703.638    -365.977    -281.538
  H      702.512    -366.419    -283.687
  H      704.272    -367.263    -286.671
  H      703.168    -369.683    -285.795
  H      701.501    -368.568    -284.473
  H      700.741    -366.913    -286.909
  H      699.313    -366.616    -284.929
  H      700.714    -366.372    -283.894
  P      699.191    -369.756    -285.060
  C      697.505    -368.062    -286.004
  O      698.236    -368.477    -284.864
  O      699.631    -370.425    -283.803
  O      698.294    -370.718    -285.979
  H      698.547    -371.659    -285.842
  H      696.786    -367.298    -285.701
  H      696.964    -368.910    -286.438
  H      698.185    -367.633    -286.744
  H      701.991    -362.864    -281.723
  H      701.155    -361.763    -282.792
  H      702.322    -362.891    -283.438

 3  4  5  6  7  8  9  10  11  12  13  23  28  29  30  31  32 0
 6-311+G(2d,p)
 ****
 33  34 0
 6-311+G(2d,p)
 ****
 1  2  14  15  16  17  18  19  20  21  22  24  25  26  27 0
 3-21G
 ****
 35  36  37  38  39  40  41  42  43  44  45 0
 3-21G
 ****


