%nproc=1
%NoSave
%Mem=1900MB
#P OB98/GEN NMR

erre ene a

0 1
  C      238.921    -205.748     823.594
  O      238.538    -204.368     823.638
  P      238.236    -203.522     822.300
  C      235.709    -203.284     822.780
  O      236.701    -203.770     821.875
  C      235.025    -202.027     822.253
  O      233.980    -202.370     821.308
  C      234.344    -201.176     823.320
  O      235.301    -200.391     824.018
  C      233.348    -200.378     822.482
  O      233.998    -199.266     821.856
  C      232.916    -201.414     821.439
  N      228.212    -202.572     819.776
  C      229.248    -201.922     819.188
  N      230.470    -201.647     819.697
  C      230.582    -202.145     820.948
  C      229.616    -202.833     821.672
  C      228.379    -203.041     821.040
  N      227.330    -203.690     821.643
  N      230.088    -203.167     822.928
  C      231.328    -202.701     822.939
  N      231.671    -202.086     821.773
  O      239.221    -203.743     821.198
  O      238.246    -201.989     822.782
  H      234.238    -198.634     822.557
  H      238.511    -201.416     822.031
  H      229.064    -201.576     818.178
  H      232.010    -202.800     823.777
  H      232.780    -200.954     820.448
  H      232.514    -199.978     823.083
  H      233.800    -201.823     824.022
  H      235.768    -201.434     821.711
  H      236.196    -203.063     823.742
  H      226.454    -203.772     821.136
  H      227.425    -203.999     822.602
  H      234.965    -204.082     822.938
  P      235.016    -199.931     825.524
  C      235.594    -202.109     826.755
  O      234.561    -201.228     826.346
  O      234.140    -198.732     825.679
  O      236.484    -199.652     826.118
  H      236.428    -198.956     826.797
  H      235.890    -202.741     825.914
  H      235.217    -202.738     827.563
  H      236.459    -201.555     827.118
  H      239.071    -206.109     824.590
  H      239.830    -205.848     823.038
  H      238.149    -206.318     823.121

 3  4  5  6  7  8  9  10  11  12  22  25  29  30  31  32 0
 6-311+G(2d,p)
 ****
 33  36  37 0
 6-311+G(2d,p)
 ****
 1  2  13  14  15  16  17  18  19  20  21  23  24  26 0
 3-21G
 ****
 27  28  34  35  38  39  40  41  42  43  44  45  46  47  48 0
 3-21G
 ****


