%nproc=1
%NoSave
%Mem=1900MB
#P OB98/GEN NMR

erre ene a

0 1
  C     -317.525    -105.343     543.943
  O     -318.597    -104.640     544.540
  P     -320.007    -104.507     543.789
  C     -319.966    -101.979     543.252
  O     -319.817    -103.309     542.736
  C     -319.702    -100.943     542.160
  O     -318.407    -101.168     541.546
  C     -320.701    -100.963     541.018
  O     -321.912    -100.344     541.400
  C     -319.929    -100.231     539.923
  O     -320.032     -98.811     540.089
  C     -318.477    -100.709     540.188
  N     -318.056    -101.740     539.246
  C     -317.520    -101.293     538.038
  O     -317.442    -100.086     537.802
  N     -317.113    -102.221     537.099
  C     -317.259    -103.487     537.349
  N     -316.848    -104.361     536.384
  C     -317.853    -104.008     538.595
  C     -318.234    -103.087     539.493
  O     -321.201    -104.400     544.677
  O     -320.041    -105.813     542.845
  H     -319.513     -98.415     539.356
  H     -320.208    -106.635     543.361
  H     -317.972    -105.072     538.751
  H     -318.684    -103.375     540.432
  H     -317.779     -99.867     540.108
  H     -320.292    -100.473     538.919
  H     -320.882    -102.007     540.699
  H     -319.692     -99.947     542.632
  H     -316.483    -103.962     535.535
  H     -319.248    -101.851     544.065
  H     -316.952    -105.359     536.453
  H     -320.980    -101.868     543.656
  P     -323.310    -100.889     540.834
  C     -323.622     -99.306     538.835
  O     -323.336    -100.635     539.252
  O     -324.526    -100.434     541.572
  O     -323.156    -102.487     540.930
  H     -323.989    -102.871     541.291
  H     -323.294     -99.178     537.806
  H     -323.097     -98.573     539.477
  H     -324.696     -99.121     538.889
  H     -316.677    -105.320     544.595
  H     -317.271    -104.882     543.011
  H     -317.816    -106.358     543.772

 3  4  5  6  7  8  9  10  11  12  13  23  27  28  29  30  32 0
 6-311+G(2d,p)
 ****
 34  35 0
 6-311+G(2d,p)
 ****
 1  2  14  15  16  17  18  19  20  21  22  24  25  26 0
 3-21G
 ****
 31  33  36  37  38  39  40  41  42  43  44  45  46 0
 3-21G
 ****


