%nproc=1
%NoSave
%Mem=1900MB
#P OB98/GEN NMR

erre ene a

0 1
  C     -729.479     190.615     122.409
  O     -728.404     191.296     123.036
  H     -729.624     189.652     122.912
  H     -729.248     190.432     121.356
  H     -730.399     191.203     122.491
  P     -727.959     192.692     122.369
  C     -725.496     191.866     122.084
  O     -726.701     192.287     121.452
  C     -724.463     191.483     121.028
  O     -724.960     190.407     120.199
  C     -724.092     192.598     120.064
  O     -723.193     193.550     120.613
  C     -723.434     191.790     118.957
  O     -722.128     191.368     119.379
  C     -724.419     190.598     118.861
  N     -725.496     190.802     117.888
  C     -725.149     190.717     116.538
  O     -723.981     190.481     116.190
  N     -726.117     190.938     115.583
  C     -727.331     191.192     115.955
  N     -728.255     191.412     114.955
  C     -727.747     191.280     117.368
  C     -726.792     191.076     118.263
  O     -727.266     193.474     123.580
  O     -729.028     193.455     121.665
  H     -721.703     190.975     118.594
  H     -726.820     194.294     123.247
  H     -728.776     191.512     117.624
  H     -727.024     191.127     119.336
  H     -723.880     189.670     118.600
  H     -723.313     192.348     118.032
  H     -724.987     193.092     119.659
  H     -723.577     191.098     121.551
  H     -727.929     191.399     114.013
  H     -725.717     191.006     122.729
  H     -729.181     191.757     115.148
  H     -725.095     192.687     122.704
  P     -722.764     194.788     119.685
  C     -720.192     194.551     120.031
  O     -721.292     194.472     119.138
  O     -722.527     195.973     120.735
  O     -723.776     195.165     118.634
  H     -722.778     196.840     120.354
  H     -719.290     194.312     119.508
  H     -720.333     193.857     120.833
  H     -720.123     195.543     120.425

 6  7  8  9  10  11  12  13  14  15  16  26  30  31  32  33  35 0
 6-311+G(2d,p)
 ****
 37  38 0
 6-311+G(2d,p)
 ****
 1  2  3  4  5  17  18  19  20  21  22  23  24  25 0
 3-21G
 ****
 27  28  29  34  36  39  40  41  42  43  44  45  46 0
 3-21G
 ****


