%nproc=1
%NoSave
%Mem=1900MB
#P OB98/GEN NMR

erre ene a

0 1
  C        0.011      91.782    -221.636
  O       -1.071      91.892    -222.541
  H        0.520      92.748    -221.581
  H        0.725      91.031    -221.981
  H       -0.351      91.521    -220.637
  P       -1.977      90.596    -222.798
  C       -1.393      88.084    -222.916
  O       -0.958      89.413    -223.165
  C       -0.316      87.092    -223.341
  O        0.967      87.489    -222.819
  C       -0.561      85.665    -222.852
  O       -1.491      85.005    -223.695
  C        0.845      85.096    -222.949
  O        1.155      84.801    -224.324
  C        1.692      86.283    -222.455
  N        5.209      86.130    -218.806
  C        5.348      86.021    -220.177
  N        6.598      85.794    -220.636
  N        4.348      86.103    -221.019
  C        3.150      86.259    -220.410
  C        2.886      86.364    -219.060
  C        4.005      86.329    -218.146
  O        3.927      86.439    -216.926
  N        1.539      86.448    -218.820
  C        0.991      86.430    -220.022
  N        1.928      86.303    -221.020
  O       -3.097      90.755    -223.783
  O       -2.504      90.195    -221.343
  H        0.738      83.943    -224.527
  H       -3.368      90.604    -221.154
  H        6.016      86.040    -218.212
  H       -0.068      86.512    -220.222
  H        2.673      86.325    -222.944
  H        0.977      84.176    -222.382
  H        7.332      85.444    -220.034
  H       -0.873      85.643    -221.803
  H        6.712      85.661    -221.633
  H       -0.244      87.124    -224.435
  H       -2.310      87.924    -223.490
  H       -1.620      87.949    -221.852
  P       -2.301      83.715    -223.184
  C       -1.417      81.742    -221.769
  O       -1.174      82.623    -222.857
  O       -3.373      83.244    -224.104
  O       -2.825      84.117    -221.733
  H       -3.706      84.572    -221.741
  H       -0.591      81.070    -221.663
  H       -2.310      81.183    -221.956
  H       -1.533      82.310    -220.869

 6  7  8  9  10  11  12  13  14  15  26  29  33  34 0
 6-311+G(2d,p)
 ****
 36  38  39  40  41 0
 6-311+G(2d,p)
 ****
 1  2  3  4  5  16  17  18  19  20  21  22  23  24  25 0
 3-21G
 ****
 27  28  30  31  32  35  37  42  43  44  45  46  47 0
 3-21G
 ****
 48  49 0
 3-21G
 ****


