%nproc=1
%NoSave
%Mem=1900MB
#P OB98/GEN NMR

erre ene a

0 1
  C      -78.186     169.113     154.122
  O      -78.102     167.841     153.511
  H      -79.215     169.278     154.448
  H      -77.909     169.897     153.413
  H      -77.528     169.152     154.996
  P      -76.675     167.425     152.910
  C      -77.467     168.095     150.549
  O      -76.520     168.324     151.587
  C      -76.873     168.478     149.193
  O      -77.673     167.859     148.150
  C      -76.861     169.989     148.932
  O      -75.688     170.327     148.193
  C      -78.083     170.196     148.052
  O      -77.995     171.385     147.274
  C      -78.092     168.898     147.247
  N      -81.451     170.276     143.680
  C      -80.158     170.605     143.878
  N      -79.327     170.171     144.846
  C      -79.942     169.262     145.628
  C      -81.251     168.827     145.550
  C      -82.031     169.384     144.520
  N      -83.361     169.083     144.330
  N      -81.521     167.924     146.560
  C      -80.390     167.810     147.232
  N      -79.413     168.616     146.716
  O      -76.459     165.962     152.712
  O      -75.665     168.136     153.928
  H      -77.199     171.324     146.704
  H      -75.930     169.058     154.108
  H      -79.738     171.318     143.174
  H      -80.235     167.176     148.099
  H      -77.397     168.924     146.397
  H      -78.982     170.271     148.677
  H      -76.908     170.581     149.846
  H      -75.866     168.053     149.115
  H      -78.373     168.683     150.731
  H      -83.842     169.528     143.565
  H      -83.811     168.416     144.940
  H      -77.732     167.032     150.565
  P      -74.405     170.885     148.976
  C      -75.362     173.218     149.508
  O      -74.893     171.987     150.039
  O      -73.255     171.298     148.122
  O      -74.004     169.652     149.922
  H      -73.033     169.555     149.924
  H      -75.656     173.863     150.309
  H      -76.202     173.035     148.871
  H      -74.581     173.683     148.943

 6  7  8  9  10  11  12  13  14  15  25  28  32  33  34  35 0
 6-311+G(2d,p)
 ****
 36  39  40 0
 6-311+G(2d,p)
 ****
 1  2  3  4  5  16  17  18  19  20  21  22  23  24 0
 3-21G
 ****
 26  27  29  30  31  37  38  41  42  43  44  45  46  47 0
 3-21G
 ****
 48 0
 3-21G
 ****


