%nproc=1
%NoSave
%Mem=1900MB
#P OB98/GEN NMR

erre ene a

0 1
  C      -57.757     -28.053     227.825
  O      -57.940     -28.577     229.126
  P      -57.643     -30.122     229.413
  C      -60.083     -30.599     230.063
  O      -59.009     -30.932     229.191
  C      -60.815     -31.862     230.513
  O      -61.224     -32.640     229.369
  C      -59.965     -32.801     231.361
  O      -59.843     -32.314     232.685
  C      -60.745     -34.102     231.230
  O      -61.853     -34.126     232.144
  C      -61.246     -34.027     229.780
  N      -60.587     -38.700     227.846
  C      -61.359     -38.243     228.855
  N      -61.451     -36.986     229.338
  C      -60.616     -36.168     228.679
  C      -59.743     -36.494     227.652
  C      -59.761     -37.830     227.214
  N      -59.026     -38.293     226.146
  N      -59.024     -35.382     227.257
  C      -59.449     -34.407     228.034
  N      -60.455     -34.820     228.863
  O      -56.939     -30.413     230.697
  O      -56.750     -30.578     228.164
  H      -62.521     -34.736     231.774
  H      -55.880     -30.885     228.484
  H      -61.994     -38.984     229.333
  H      -59.076     -33.391     228.023
  H      -62.286     -34.365     229.690
  H      -60.132     -34.986     231.443
  H      -58.977     -32.927     230.905
  H      -61.717     -31.559     231.057
  H      -60.774     -29.944     229.523
  H      -59.226     -39.228     225.827
  H      -58.651     -37.613     225.488
  H      -59.690     -30.061     230.932
  P      -58.605     -32.770     233.589
  C      -59.914     -34.448     235.020
  O      -58.894     -34.277     234.053
  O      -58.221     -31.827     234.682
  O      -57.411     -32.950     232.533
  H      -56.564     -32.728     232.960
  H      -59.529     -34.184     236.008
  H      -60.217     -35.498     235.025
  H      -60.782     -33.826     234.786
  H      -58.002     -27.011     227.822
  H      -58.394     -28.571     227.139
  H      -56.736     -28.180     227.530

 3  4  5  6  7  8  9  10  11  12  22  25  29  30  31  32 0
 6-311+G(2d,p)
 ****
 33  36  37 0
 6-311+G(2d,p)
 ****
 1  2  13  14  15  16  17  18  19  20  21  23  24  26 0
 3-21G
 ****
 27  28  34  35  38  39  40  41  42  43  44  45  46  47  48 0
 3-21G
 ****


