%nproc=1
%NoSave
%Mem=1900MB
#P OB98/GEN NMR

erre ene a

0 1
  C       34.421      38.299     164.872
  O       33.209      37.842     164.305
  H       35.141      37.476     164.869
  H       34.257      38.619     165.904
  H       34.826      39.126     164.283
  P       31.998      38.895     164.276
  C       30.311      37.181     165.243
  O       30.650      38.030     164.156
  C       29.159      36.256     164.860
  O       27.997      37.021     164.473
  C       29.470      35.311     163.704
  O       30.154      34.157     164.161
  C       28.071      35.002     163.190
  O       27.431      33.999     164.008
  C       27.364      36.357     163.341
  N       24.680      39.403     160.339
  C       24.280      38.623     161.406
  N       22.962      38.635     161.705
  N       25.095      37.887     162.115
  C       26.373      37.927     161.672
  C       26.895      38.656     160.625
  C       25.990      39.508     159.885
  O       26.298      40.284     158.982
  N       28.244      38.444     160.496
  C       28.529      37.564     161.438
  N       27.425      37.215     162.174
  O       32.128      39.574     162.829
  O       32.015      39.923     165.356
  H       27.486      34.265     164.942
  H       31.907      40.521     162.907
  H       24.015      39.974     159.850
  H       29.513      37.161     161.635
  H       26.304      36.239     163.590
  H       28.094      34.603     162.175
  H       22.265      38.936     161.039
  H       30.038      35.824     162.918
  H       22.661      38.006     162.440
  H       28.883      35.685     165.756
  H       30.012      37.800     166.095
  H       31.186      36.585     165.523
  P       31.548      33.778     163.468
  C       30.509      31.722     162.270
  O       31.524      32.207     163.136
  O       32.591      33.891     164.678
  O       31.945      34.668     162.337
  H       33.121      34.704     164.584
  H       30.622      30.665     162.145
  H       30.591      32.205     161.319
  H       29.549      31.930     162.694

 6  7  8  9  10  11  12  13  14  15  26  29  33  34 0
 6-311+G(2d,p)
 ****
 36  38  39  40  41 0
 6-311+G(2d,p)
 ****
 1  2  3  4  5  16  17  18  19  20  21  22  23  24  25 0
 3-21G
 ****
 27  28  30  31  32  35  37  42  43  44  45  46  47 0
 3-21G
 ****
 48  49 0
 3-21G
 ****


