%nproc=1
%NoSave
%Mem=1900MB
#P OB98/GEN NMR

erre ene a

0 1
  C      -26.112    -152.374    -135.635
  O      -25.316    -151.231    -135.399
  P      -25.538    -150.304    -134.108
  C      -27.695    -149.238    -135.018
  O      -27.122    -150.063    -134.013
  C      -28.379    -148.012    -134.410
  O      -29.534    -148.435    -133.633
  C      -27.483    -147.172    -133.488
  O      -27.898    -145.811    -133.658
  C      -27.866    -147.677    -132.111
  O      -27.507    -146.773    -131.073
  C      -29.371    -147.910    -132.297
  N      -29.916    -148.808    -131.281
  C      -30.583    -148.211    -130.209
  O      -30.625    -146.982    -130.108
  N      -31.140    -149.015    -129.246
  C      -30.953    -150.297    -129.298
  N      -31.533    -151.043    -128.319
  C      -30.148    -150.956    -130.342
  C      -29.676    -150.161    -131.301
  O      -24.710    -149.064    -134.067
  O      -25.266    -151.296    -132.882
  H      -27.678    -147.209    -130.211
  H      -24.294    -151.434    -132.759
  H      -29.971    -152.020    -130.312
  H      -29.075    -150.553    -132.112
  H      -29.918    -146.960    -132.249
  H      -27.356    -148.631    -131.915
  H      -26.417    -147.279    -133.697
  H      -28.755    -147.393    -135.235
  H      -32.089    -150.553    -127.629
  H      -28.445    -149.827    -135.555
  H      -31.518    -152.054    -128.312
  H      -26.927    -148.938    -135.740
  P      -26.831    -144.630    -133.834
  C      -27.067    -143.971    -131.371
  O      -26.175    -144.374    -132.395
  O      -27.347    -143.407    -134.517
  O      -25.633    -145.299    -134.664
  H      -25.062    -144.598    -135.032
  H      -26.577    -144.100    -130.400
  H      -27.982    -144.569    -131.388
  H      -27.322    -142.916    -131.501
  H      -25.800    -152.845    -136.544
  H      -27.138    -152.083    -135.719
  H      -26.001    -153.060    -134.821

 3  4  5  6  7  8  9  10  11  12  13  23  27  28  29  30  32 0
 6-311+G(2d,p)
 ****
 34  35 0
 6-311+G(2d,p)
 ****
 1  2  14  15  16  17  18  19  20  21  22  24  25  26 0
 3-21G
 ****
 31  33  36  37  38  39  40  41  42  43  44  45  46 0
 3-21G
 ****


