%nproc=1
%NoSave
%Mem=1900MB
#P OB98/GEN NMR

erre ene a

0 1
  C      702.638     803.515    -749.140
  O      701.281     803.857    -749.356
  H      702.753     803.157    -748.112
  H      703.284     804.386    -749.278
  H      702.941     802.714    -749.825
  P      700.866     804.484    -750.767
  C      699.766     802.331    -751.698
  O      700.835     803.269    -751.816
  C      699.236     801.952    -753.078
  O      698.562     803.071    -753.689
  C      700.322     801.528    -754.065
  O      700.783     800.224    -753.772
  C      699.571     801.676    -755.379
  O      698.699     800.559    -755.606
  C      698.754     802.971    -755.119
  N      699.382     804.175    -755.648
  C      698.644     804.878    -756.607
  O      697.545     804.464    -756.979
  N      699.190     806.018    -757.141
  C      700.340     806.453    -756.725
  N      700.824     807.593    -757.281
  C      701.128     805.766    -755.686
  C      700.602     804.631    -755.205
  O      701.666     805.672    -751.224
  O      699.320     804.849    -750.589
  H      699.277     799.782    -755.712
  H      699.218     805.775    -750.313
  H      702.078     806.159    -755.359
  H      701.113     804.061    -754.442
  H      697.754     802.879    -755.567
  H      700.243     801.734    -756.238
  H      701.146     802.256    -754.054
  H      698.490     801.148    -752.945
  H      700.236     808.043    -757.982
  H      698.978     802.816    -751.114
  H      701.615     808.098    -756.925
  H      700.092     801.440    -751.155
  P      701.882     799.503    -754.688
  C      704.016     799.552    -753.245
  O      703.288     800.179    -754.297
  O      701.578     799.484    -756.151
  O      702.010     798.042    -754.041
  H      701.242     797.478    -754.317
  H      704.928     800.086    -753.075
  H      704.240     798.542    -753.519
  H      703.427     799.557    -752.352

 6  7  8  9  10  11  12  13  14  15  16  26  30  31  32  33  35 0
 6-311+G(2d,p)
 ****
 37  38 0
 6-311+G(2d,p)
 ****
 1  2  3  4  5  17  18  19  20  21  22  23  24  25 0
 3-21G
 ****
 27  28  29  34  36  39  40  41  42  43  44  45  46 0
 3-21G
 ****


