%nproc=1
%NoSave
%Mem=1900MB
#P OB98/GEN NMR

erre ene a

0 1
  C     -191.284    -110.270    -201.533
  O     -190.034    -110.408    -200.890
  H     -191.175    -109.565    -202.359
  H     -192.025    -109.879    -200.832
  H     -191.616    -111.232    -201.929
  P     -189.956    -111.426    -199.650
  C     -190.493    -109.987    -197.546
  O     -190.994    -110.839    -198.567
  C     -191.634    -109.496    -196.652
  O     -192.251    -110.633    -195.999
  C     -191.176    -108.523    -195.563
  O     -192.110    -107.448    -195.466
  C     -191.179    -109.356    -194.294
  O     -191.362    -108.562    -193.125
  C     -192.291    -110.373    -194.584
  N     -192.117    -111.601    -193.812
  C     -192.428    -111.539    -192.449
  O     -192.815    -110.480    -191.949
  N     -192.245    -112.655    -191.676
  C     -191.735    -113.726    -192.202
  N     -191.555    -114.792    -191.379
  C     -191.345    -113.822    -193.623
  C     -191.569    -112.736    -194.363
  O     -188.526    -111.104    -199.012
  O     -190.161    -112.864    -199.992
  H     -191.370    -109.162    -192.346
  H     -188.253    -111.801    -198.368
  H     -190.910    -114.731    -194.011
  H     -191.311    -112.715    -195.417
  H     -193.276    -109.945    -194.347
  H     -190.216    -109.873    -194.198
  H     -190.184    -108.112    -195.752
  H     -192.404    -109.046    -197.289
  H     -191.822    -114.687    -190.407
  H     -189.996    -109.130    -198.012
  H     -191.140    -115.666    -191.671
  H     -189.765    -110.539    -196.943
  P     -191.945    -106.273    -196.548
  C     -190.191    -104.671    -195.513
  O     -190.441    -105.719    -196.438
  O     -192.839    -105.087    -195.953
  O     -192.368    -106.667    -197.925
  H     -193.708    -105.058    -196.392
  H     -189.155    -104.405    -195.547
  H     -190.443    -104.999    -194.526
  H     -190.786    -103.820    -195.769

 6  7  8  9  10  11  12  13  14  15  16  26  30  31  32  33  35 0
 6-311+G(2d,p)
 ****
 37  38 0
 6-311+G(2d,p)
 ****
 1  2  3  4  5  17  18  19  20  21  22  23  24  25 0
 3-21G
 ****
 27  28  29  34  36  39  40  41  42  43  44  45  46 0
 3-21G
 ****


