%nproc=1
%NoSave
%Mem=1900MB
#P OB98/GEN NMR

erre ene a

0 1
  C      -23.870      22.913      73.718
  O      -23.928      21.500      73.761
  P      -23.820      20.740      75.165
  C      -21.283      20.343      75.035
  O      -22.342      20.983      75.740
  C      -19.945      20.635      75.708
  O      -19.655      22.050      75.663
  C      -19.896      20.254      77.182
  O      -19.751      18.858      77.339
  C      -18.705      21.078      77.662
  O      -17.471      20.409      77.351
  C      -18.849      22.359      76.823
  N      -17.867      26.583      79.509
  C      -17.060      25.612      79.029
  N      -17.402      24.492      78.354
  C      -18.736      24.419      78.212
  C      -19.689      25.311      78.680
  C      -19.208      26.458      79.338
  N      -20.015      27.482      79.778
  N      -20.959      24.872      78.365
  C      -20.776      23.730      77.730
  N      -19.450      23.452      77.558
  O      -24.268      19.316      75.157
  O      -24.733      21.616      76.145
  H      -16.748      20.957      77.714
  H      -25.460      21.062      76.490
  H      -15.997      25.757      79.201
  H      -21.564      23.086      77.362
  H      -17.880      22.710      76.448
  H      -18.719      21.250      78.741
  H      -20.805      20.608      77.689
  H      -19.157      20.113      75.147
  H      -21.273      20.724      74.007
  H      -19.555      28.318      80.106
  H      -20.955      27.551      79.398
  H      -21.464      19.264      75.007
  P      -20.492      18.106      78.544
  C      -18.377      18.599      79.908
  O      -19.792      18.596      79.900
  O      -20.635      16.628      78.396
  O      -21.924      18.826      78.607
  H      -22.595      18.185      78.906
  H      -18.008      17.578      80.049
  H      -18.031      19.220      80.738
  H      -17.981      19.005      78.972
  H      -23.958      23.243      72.704
  H      -22.936      23.244      74.121
  H      -24.673      23.321      74.296

 3  4  5  6  7  8  9  10  11  12  22  25  29  30  31  32 0
 6-311+G(2d,p)
 ****
 33  36  37 0
 6-311+G(2d,p)
 ****
 1  2  13  14  15  16  17  18  19  20  21  23  24  26 0
 3-21G
 ****
 27  28  34  35  38  39  40  41  42  43  44  45  46  47  48 0
 3-21G
 ****


