%nproc=1
%NoSave
%Mem=1900MB
#P OB98/GEN NMR

erre ene a

0 1
  C      394.117    -344.311      15.853
  O      394.562    -342.977      15.708
  H      393.454    -344.580      15.027
  H      394.984    -344.977      15.840
  H      393.594    -344.432      16.805
  P      393.433    -341.839      15.663
  C      393.153    -341.610      18.231
  O      392.555    -341.997      17.001
  C      392.320    -340.514      18.892
  O      391.054    -341.089      19.306
  C      392.976    -339.866      20.124
  O      393.105    -338.454      19.931
  C      391.982    -340.109      21.252
  O      391.839    -338.989      22.123
  C      390.685    -340.423      20.519
  N      386.046    -340.762      22.600
  C      386.509    -340.028      21.564
  N      387.730    -340.064      20.990
  C      388.503    -340.990      21.579
  C      388.163    -341.830      22.625
  C      386.873    -341.676      23.160
  N      386.420    -342.386      24.251
  N      389.231    -342.646      22.967
  C      390.208    -342.274      22.166
  N      389.820    -341.264      21.323
  O      392.448    -342.345      14.506
  O      393.936    -340.461      15.398
  H      392.733    -338.762      22.437
  H      392.253    -341.607      13.896
  H      385.808    -339.315      21.145
  H      391.218    -342.665      22.182
  H      390.129    -339.514      20.254
  H      392.323    -340.967      21.845
  H      393.952    -340.300      20.361
  H      392.096    -339.751      18.138
  H      394.161    -341.225      18.042
  H      385.526    -342.127      24.638
  H      387.069    -342.987      24.738
  H      393.231    -342.486      18.881
  P      394.427    -337.763      20.535
  C      396.118    -338.184      18.604
  O      395.693    -338.528      19.915
  O      394.415    -338.248      22.063
  O      394.441    -336.277      20.417
  H      394.886    -337.599      22.622
  H      396.967    -338.778      18.337
  H      396.384    -337.148      18.576
  H      395.323    -338.367      17.912

 6  7  8  9  10  11  12  13  14  15  25  28  32  33  34  35 0
 6-311+G(2d,p)
 ****
 36  39  40 0
 6-311+G(2d,p)
 ****
 1  2  3  4  5  16  17  18  19  20  21  22  23  24 0
 3-21G
 ****
 26  27  29  30  31  37  38  41  42  43  44  45  46  47  48 0
 3-21G
 ****


