%nproc=1
%NoSave
%Mem=1900MB
#P OB98/GEN NMR

erre ene a

0 1
  C     -115.348    -798.700     169.440
  O     -116.663    -799.149     169.222
  H     -114.887    -798.467     168.476
  H     -114.757    -799.478     169.927
  H     -115.343    -797.794     170.052
  P     -117.587    -799.396     170.514
  C     -119.509    -797.803     169.785
  O     -118.459    -798.056     170.719
  C     -119.974    -796.352     169.912
  O     -118.816    -795.488     170.071
  C     -120.761    -795.854     168.683
  O     -121.824    -795.009     169.137
  C     -119.740    -795.025     167.914
  O     -120.346    -794.040     167.083
  C     -118.876    -794.473     169.058
  N     -117.543    -794.108     168.576
  C     -117.312    -792.745     168.317
  O     -118.213    -791.929     168.482
  N     -116.093    -792.358     167.832
  C     -115.202    -793.265     167.535
  N     -114.024    -792.821     167.012
  C     -115.429    -794.711     167.720
  C     -116.604    -795.065     168.248
  O     -116.551    -799.337     171.730
  O     -118.380    -800.660     170.503
  H     -120.790    -794.506     166.329
  H     -116.823    -799.921     172.460
  H     -114.671    -795.429     167.430
  H     -116.856    -796.100     168.424
  H     -119.343    -793.590     169.498
  H     -119.150    -795.690     167.271
  H     -121.176    -796.670     168.082
  H     -120.580    -796.252     170.822
  H     -113.909    -791.821     166.876
  H     -120.358    -798.465     170.010
  H     -113.278    -793.436     166.704
  H     -119.153    -798.010     168.767
  P     -123.318    -795.591     169.038
  C     -123.533    -795.773     171.625
  O     -123.612    -796.430     170.370
  O     -123.189    -796.707     167.895
  O     -124.344    -794.552     168.691
  H     -123.635    -796.414     167.087
  H     -123.756    -796.469     172.407
  H     -124.239    -794.969     171.652
  H     -122.545    -795.385     171.763

 6  7  8  9  10  11  12  13  14  15  16  26  30  31  32  33  35 0
 6-311+G(2d,p)
 ****
 37  38 0
 6-311+G(2d,p)
 ****
 1  2  3  4  5  17  18  19  20  21  22  23  24  25 0
 3-21G
 ****
 27  28  29  34  36  39  40  41  42  43  44  45  46 0
 3-21G
 ****


