%nproc=1
%NoSave
%Mem=1900MB
#P OB98/GEN NMR

erre ene a

0 1
  C      293.695      53.259      43.284
  O      294.480      52.541      42.328
  P      294.186      52.802      40.771
  C      296.418      53.984      40.136
  O      295.577      52.841      39.985
  C      297.879      53.553      40.274
  O      298.153      53.054      41.598
  C      298.263      52.418      39.337
  O      298.469      52.910      38.025
  C      299.516      51.867      39.997
  O      300.704      52.520      39.511
  C      299.290      52.179      41.491
  N      299.110      50.979      42.296
  C      300.269      50.230      42.550
  O      301.349      50.588      42.078
  N      300.154      49.092      43.302
  C      298.996      48.715      43.739
  N      298.948      47.572      44.475
  C      297.741      49.462      43.475
  C      297.878      50.579      42.756
  O      293.703      54.331      40.748
  O      293.150      51.889      40.194
  H      301.432      52.201      40.087
  H      293.042      54.465      40.044
  H      296.799      49.107      43.857
  H      297.018      51.189      42.508
  H      300.150      52.734      41.905
  H      299.642      50.800      39.791
  H      297.472      51.652      39.336
  H      298.522      54.429      40.086
  H      299.820      47.081      44.635
  H      296.114      54.566      41.011
  H      298.098      47.188      44.861
  H      296.282      54.640      39.270
  P      298.725      51.839      36.863
  C      296.867      52.923      35.449
  O      298.232      52.567      35.515
  O      297.533      50.787      37.112
  O      300.058      51.178      36.817
  H      297.634      50.022      36.508
  H      296.718      53.582      34.591
  H      296.564      53.451      36.354
  H      296.257      52.021      35.312
  H      294.000      52.986      44.273
  H      292.661      53.018      43.150
  H      293.837      54.310      43.145

 3  4  5  6  7  8  9  10  11  12  13  21  23  27  28  29  30  32 0
 6-311+G(2d,p)
 ****
 34  35 0
 6-311+G(2d,p)
 ****
 1  2  14  15  16  17  18  19  20  22  24  25  26 0
 3-21G
 ****
 31  33  36  37  38  39  40  41  42  43  44  45  46 0
 3-21G
 ****


