%nproc=1
%NoSave
%Mem=1900MB
#P OB98/GEN NMR

erre ene a

0 1
  C      543.618    -462.854     -43.172
  O      543.133    -462.690     -41.839
  P      544.092    -462.060     -40.722
  C      545.605    -464.135     -40.395
  O      545.528    -462.769     -40.791
  C      547.046    -464.641     -40.538
  O      547.474    -464.637     -41.925
  C      548.054    -463.755     -39.816
  O      548.012    -463.769     -38.403
  C      549.359    -464.155     -40.486
  O      549.915    -465.338     -39.912
  C      548.906    -464.421     -41.943
  N      549.258    -463.329     -42.851
  C      549.732    -463.713     -44.103
  O      549.895    -464.886     -44.435
  N      550.043    -462.688     -44.961
  C      549.972    -461.355     -44.683
  O      550.289    -460.478     -45.482
  C      549.487    -461.013     -43.333
  C      549.163    -462.000     -42.493
  O      543.502    -461.943     -39.356
  O      544.399    -460.598     -41.319
  H      550.650    -465.619     -40.487
  H      544.376    -459.962     -40.573
  H      550.389    -462.949     -45.878
  H      549.421    -459.958     -43.069
  H      548.802    -461.762     -41.491
  H      549.358    -465.339     -42.320
  H      550.120    -463.366     -40.386
  H      547.854    -462.714     -40.106
  H      547.085    -465.674     -40.179
  H      544.931    -464.734     -41.013
  H      545.250    -464.226     -39.367
  P      547.555    -462.519     -37.526
  C      550.022    -461.720     -37.372
  O      548.677    -461.374     -37.633
  O      546.998    -462.800     -36.164
  O      546.375    -461.906     -38.440
  H      545.696    -461.516     -37.849
  H      550.635    -460.813     -37.477
  H      550.364    -462.467     -38.094
  H      550.123    -462.098     -36.350
  H      542.851    -463.285     -43.780
  H      544.472    -463.499     -43.164
  H      543.895    -461.900     -43.571

 3  4  5  6  7  8  9  10  11  12  13  23  28  29  30  31  32 0
 6-311+G(2d,p)
 ****
 33  34 0
 6-311+G(2d,p)
 ****
 1  2  14  15  16  17  18  19  20  21  22  24  25  26  27 0
 3-21G
 ****
 35  36  37  38  39  40  41  42  43  44  45 0
 3-21G
 ****


