%nproc=1
%NoSave
%Mem=1900MB
#P OB98/GEN NMR

erre ene a

0 1
  C      206.219     -75.558      59.273
  O      206.452     -75.882      57.897
  P      206.462     -74.783      56.731
  C      205.076     -75.654      54.735
  O      206.373     -75.516      55.308
  C      205.081     -76.627      53.553
  O      205.941     -76.145      52.502
  C      205.585     -78.026      53.880
  O      204.606     -78.772      54.583
  C      205.910     -78.554      52.486
  O      204.730     -79.044      51.829
  C      206.441     -77.288      51.783
  N      207.897     -77.270      51.693
  C      208.478     -78.164      50.791
  O      207.779     -78.960      50.161
  N      209.845     -78.154      50.643
  C      210.566     -77.372      51.384
  N      211.913     -77.399      51.190
  C      209.999     -76.478      52.410
  C      208.671     -76.477      52.507
  O      207.577     -73.793      56.838
  O      205.046     -74.038      56.852
  H      204.066     -78.330      51.880
  H      205.148     -73.113      56.561
  H      210.637     -75.864      53.026
  H      208.170     -75.842      53.229
  H      206.029     -77.212      50.770
  H      206.632     -79.376      52.505
  H      206.509     -77.961      54.467
  H      204.057     -76.673      53.154
  H      212.270     -78.017      50.473
  H      204.749     -74.666      54.389
  H      212.563     -76.830      51.710
  H      204.384     -76.000      55.509
  P      204.757     -78.988      56.161
  C      204.402     -81.522      55.940
  O      203.956     -80.324      56.545
  O      204.452     -77.800      57.011
  O      206.287     -79.437      56.339
  H      206.610     -79.122      57.203
  H      204.078     -82.366      56.552
  H      205.493     -81.539      55.857
  H      203.960     -81.613      54.946
  H      206.260     -76.451      59.862
  H      205.254     -75.108      59.375
  H      206.969     -74.874      59.610

 3  4  5  6  7  8  9  10  11  12  13  23  27  28  29  30  32 0
 6-311+G(2d,p)
 ****
 34  35 0
 6-311+G(2d,p)
 ****
 1  2  14  15  16  17  18  19  20  21  22  24  25  26 0
 3-21G
 ****
 31  33  36  37  38  39  40  41  42  43  44  45  46 0
 3-21G
 ****


