%nproc=1
%NoSave
%Mem=1900MB
#P OB98/GEN NMR

erre ene a

0 1
  C      -60.129    -917.586    -280.278
  O      -58.799    -917.359    -280.768
  P      -57.752    -916.638    -279.788
  C      -57.971    -914.276    -280.882
  O      -57.121    -915.377    -280.559
  C      -57.134    -913.038    -281.198
  O      -56.489    -912.505    -280.034
  C      -56.016    -913.289    -282.196
  O      -56.492    -913.272    -283.539
  C      -55.115    -912.092    -281.948
  O      -55.638    -910.931    -282.619
  C      -55.227    -911.926    -280.428
  N      -50.261    -911.709    -279.185
  C      -51.024    -910.926    -279.981
  N      -52.333    -911.056    -280.277
  C      -52.859    -912.122    -279.639
  C      -52.204    -913.003    -278.805
  C      -50.842    -912.765    -278.576
  N      -50.066    -913.565    -277.759
  N      -53.071    -913.974    -278.340
  C      -54.234    -913.673    -278.882
  N      -54.153    -912.564    -279.688
  O      -56.537    -917.674    -279.732
  O      -58.299    -916.352    -278.428
  H      -55.095    -910.174    -282.344
  H      -56.129    -917.653    -278.842
  H      -50.514    -910.086    -280.446
  H      -55.152    -914.218    -278.728
  H      -55.243    -910.869    -280.130
  H      -54.098    -912.245    -282.322
  H      -55.483    -914.225    -281.968
  H      -57.807    -912.265    -281.598
  H      -58.647    -914.070    -280.051
  H      -49.099    -913.313    -277.623
  H      -50.499    -914.344    -277.283
  H      -58.607    -914.557    -281.729
  P      -56.880    -914.687    -284.200
  C      -54.517    -914.880    -285.272
  O      -55.916    -914.838    -285.476
  O      -58.323    -914.405    -284.830
  O      -56.887    -915.829    -283.243
  H      -58.856    -915.228    -284.835
  H      -54.047    -915.285    -286.175
  H      -54.263    -915.522    -284.432
  H      -54.138    -913.870    -285.105
  H      -60.710    -918.071    -281.035
  H      -60.581    -916.649    -280.026
  H      -60.087    -918.207    -279.408

 3  4  5  6  7  8  9  10  11  12  22  25  29  30  31  32 0
 6-311+G(2d,p)
 ****
 33  36  37 0
 6-311+G(2d,p)
 ****
 1  2  13  14  15  16  17  18  19  20  21  23  24  26 0
 3-21G
 ****
 27  28  34  35  38  39  40  41  42  43  44  45  46  47  48 0
 3-21G
 ****


