%nproc=1
%NoSave
%Mem=1900MB
#P OB98/GEN NMR

erre ene a

0 1
  C      -51.797     140.828      96.858
  O      -50.748     140.216      96.127
  P      -51.069     139.280      94.866
  C      -51.494     141.362      93.420
  O      -52.024     140.131      93.896
  C      -50.540     141.121      92.252
  O      -51.219     140.329      91.249
  C      -50.068     142.406      91.579
  O      -48.710     142.237      91.161
  C      -50.937     142.520      90.338
  O      -50.279     143.281      89.311
  C      -51.177     141.046      90.000
  N      -53.374     139.353      85.681
  C      -52.083     139.389      86.077
  N      -51.568     139.877      87.226
  C      -52.548     140.311      88.035
  C      -53.908     140.334      87.770
  C      -54.319     139.828      86.525
  N      -55.637     139.780      86.129
  N      -54.603     140.885      88.830
  C      -53.681     141.168      89.722
  N      -52.423     140.831      89.292
  O      -51.579     137.922      95.203
  O      -49.695     139.215      94.054
  H      -50.106     144.172      89.680
  H      -49.560     138.320      93.686
  H      -51.366     138.975      85.374
  H      -53.864     141.625      90.682
  H      -50.359     140.632      89.398
  H      -51.872     143.033      90.591
  H      -50.153     143.283      92.228
  H      -49.686     140.534      92.612
  H      -50.948     141.842      94.237
  H      -55.846     139.290      85.274
  H      -56.349     139.970      86.821
  H      -52.315     142.020      93.118
  P      -47.848     143.590      91.010
  C      -46.899     143.263      93.411
  O      -47.606     144.087      92.514
  O      -48.484     144.556      90.065
  O      -46.438     143.007      90.525
  H      -46.316     142.075      90.813
  H      -46.871     143.753      94.388
  H      -45.871     143.121      93.066
  H      -47.395     142.294      93.516
  H      -51.384     141.409      97.656
  H      -52.439     140.073      97.261
  H      -52.360     141.465      96.208

 3  4  5  6  7  8  9  10  11  12  22  25  29  30  31  32 0
 6-311+G(2d,p)
 ****
 33  36  37 0
 6-311+G(2d,p)
 ****
 1  2  13  14  15  16  17  18  19  20  21  23  24  26 0
 3-21G
 ****
 27  28  34  35  38  39  40  41  42  43  44  45  46  47  48 0
 3-21G
 ****


