%nproc=1
%NoSave
%Mem=1900MB
#P OB98/GEN NMR

erre ene a

0 1
  C      -29.626      50.664     231.929
  O      -30.392      51.242     232.987
  P      -31.215      50.215     233.910
  C      -32.760      50.375     235.988
  O      -32.071      51.072     234.962
  C      -33.271      51.347     237.053
  O      -32.201      51.956     237.799
  C      -34.088      52.497     236.480
  O      -35.407      52.065     236.198
  C      -34.020      53.519     237.607
  O      -35.022      53.258     238.612
  C      -32.611      53.293     238.184
  N      -30.125      57.537     239.408
  C      -31.193      56.925     240.035
  N      -31.645      57.512     241.163
  N      -31.763      55.832     239.597
  C      -31.203      55.353     238.460
  C      -30.129      55.855     237.764
  C      -29.508      57.066     238.257
  O      -28.547      57.634     237.751
  N      -29.811      55.060     236.692
  C      -30.772      54.154     236.670
  N      -31.604      54.248     237.759
  O      -30.075      49.533     234.804
  O      -31.983      49.202     233.132
  H      -35.885      53.574     238.290
  H      -29.958      48.602     234.536
  H      -29.730      58.383     239.784
  H      -30.893      53.396     235.912
  H      -32.616      53.324     239.280
  H      -34.202      54.535     237.249
  H      -31.254      58.353     241.558
  H      -33.599      52.897     235.582
  H      -32.424      57.075     241.641
  H      -33.888      50.771     237.756
  H      -32.100      49.637     236.448
  H      -33.590      49.819     235.538
  P      -35.795      51.789     234.669
  C      -37.554      50.187     233.630
  O      -37.244      51.113     234.654
  O      -34.807      50.596     234.255
  O      -35.626      52.965     233.765
  H      -34.430      50.777     233.373
  H      -38.279      49.466     234.014
  H      -36.664      49.650     233.288
  H      -37.998      50.721     232.785
  H      -29.125      51.439     231.387
  H      -30.276      50.130     231.269
  H      -28.903      49.991     232.339

 3  4  5  6  7  8  9  10  11  12  23  26  30  31 0
 6-311+G(2d,p)
 ****
 33  35  36  37  38 0
 6-311+G(2d,p)
 ****
 1  2  13  14  15  16  17  18  19  20  21  22  24  25 0
 3-21G
 ****
 27  28  29  32  34  39  40  41  42  43  44  45  46  47  48  49 0
 3-21G
 ****


