%nproc=1
%NoSave
%Mem=1900MB
#P OB98/GEN NMR

erre ene a

0 1
  C      279.988    -506.993     598.077
  O      278.806    -506.352     598.512
  P      278.598    -506.001     600.063
  C      278.031    -508.479     600.483
  O      277.613    -507.117     600.650
  C      277.271    -509.376     601.449
  O      277.535    -509.013     602.827
  C      275.756    -509.290     601.316
  O      275.180    -509.765     600.113
  C      275.313    -509.980     602.602
  O      275.342    -511.394     602.507
  C      276.390    -509.476     603.602
  N      275.888    -508.428     604.495
  C      275.145    -508.873     605.579
  O      274.909    -510.064     605.807
  N      274.641    -507.892     606.408
  C      274.761    -506.555     606.216
  O      274.254    -505.727     606.958
  C      275.554    -506.149     605.035
  C      276.073    -507.084     604.239
  O      278.171    -504.586     600.339
  O      280.003    -506.396     600.725
  H      274.754    -511.652     601.767
  H      280.253    -507.337     600.627
  H      274.089    -508.198     607.189
  H      275.681    -505.087     604.875
  H      276.648    -506.815     603.367
  H      276.755    -510.315     604.220
  H      274.287    -509.689     602.871
  H      275.467    -508.243     601.390
  H      277.638    -510.407     601.317
  H      279.095    -508.542     600.699
  H      277.880    -508.784     599.442
  P      274.006    -509.003     599.344
  C      272.053    -510.215     600.574
  O      272.708    -509.953     599.339
  O      274.370    -508.337     598.054
  O      273.588    -507.896     600.430
  H      273.281    -507.079     599.946
  H      271.230    -510.908     600.390
  H      271.652    -509.287     600.980
  H      272.751    -510.660     601.273
  H      279.944    -507.143     597.018
  H      280.082    -507.939     598.567
  H      280.834    -506.382     598.316

 3  4  5  6  7  8  9  10  11  12  13  23  28  29  30  31  32 0
 6-311+G(2d,p)
 ****
 33  34 0
 6-311+G(2d,p)
 ****
 1  2  14  15  16  17  18  19  20  21  22  24  25  26  27 0
 3-21G
 ****
 35  36  37  38  39  40  41  42  43  44  45 0
 3-21G
 ****


