%nproc=1
%NoSave
%Mem=1900MB
#P OB98/GEN NMR

erre ene a

0 1
  C      155.559     308.220    1727.966
  O      156.948     308.205    1727.732
  H      155.053     307.946    1727.030
  H      155.222     309.209    1728.259
  H      155.296     307.488    1728.735
  P      157.923     308.693    1728.916
  C      159.254     306.463    1728.777
  O      158.515     307.355    1729.607
  C      159.359     305.087    1729.437
  O      158.025     304.628    1729.817
  C      159.960     303.990    1728.504
  O      160.637     303.058    1729.336
  C      158.676     303.390    1727.911
  O      158.969     302.161    1727.281
  C      157.787     303.372    1729.158
  N      156.384     303.188    1728.816
  C      155.955     301.871    1728.683
  O      156.724     300.933    1728.822
  N      154.636     301.633    1728.357
  C      153.842     302.635    1728.123
  N      152.548     302.323    1727.790
  C      154.259     304.047    1728.202
  C      155.542     304.265    1728.566
  O      157.331     309.690    1729.878
  O      159.192     309.301    1728.161
  H      158.125     301.732    1726.960
  H      159.166     310.278    1728.208
  H      153.562     304.838    1727.975
  H      155.952     305.264    1728.640
  H      158.090     302.575    1729.859
  H      158.270     304.050    1727.159
  H      160.633     304.410    1727.746
  H      159.953     305.167    1730.373
  H      152.311     301.365    1727.714
  H      160.251     306.891    1728.636
  H      151.847     303.025    1727.561
  H      158.765     306.363    1727.791
  P      162.140     303.286    1729.866
  C      161.544     303.767    1732.354
  O      162.111     304.301    1731.140
  O      163.117     303.680    1728.794
  O      162.571     301.892    1730.537
  H      163.549     301.770    1730.434
  H      161.575     304.513    1733.120
  H      162.108     302.912    1732.665
  H      160.529     303.480    1732.177

 6  7  8  9  10  11  12  13  14  15  16  26  30  31  32  33  35 0
 6-311+G(2d,p)
 ****
 37  38 0
 6-311+G(2d,p)
 ****
 1  2  3  4  5  17  18  19  20  21  22  23  24  25 0
 3-21G
 ****
 27  28  29  34  36  39  40  41  42  43  44  45  46 0
 3-21G
 ****


