%nproc=1
%NoSave
%Mem=1900MB
#P OB98/GEN NMR

erre ene a

0 1
  C      147.933     234.548     101.019
  O      148.503     235.516     101.911
  P      148.899     236.995     101.425
  C      150.824     238.063     100.088
  O      150.064     236.882     100.327
  C      152.325     237.763     100.001
  O      152.885     237.577     101.315
  C      152.673     236.504      99.211
  O      152.612     236.755      97.820
  C      154.068     236.194      99.749
  O      155.053     237.010      99.095
  C      153.936     236.594     101.224
  N      155.984     232.632     103.727
  C      156.536     233.603     102.965
  N      155.924     234.622     102.327
  C      154.600     234.597     102.559
  C      153.894     233.668     103.311
  C      154.644     232.643     103.915
  N      154.079     231.648     104.677
  N      152.545     233.953     103.298
  C      152.440     235.045     102.567
  N      153.651     235.473     102.099
  O      149.198     237.946     102.538
  O      147.636     237.496     100.576
  H      155.882     236.929      99.599
  H      147.580     238.468     100.617
  H      157.616     233.550     102.850
  H      151.512     235.562     102.353
  H      154.848     237.076     101.595
  H      154.356     235.149      99.599
  H      151.992     235.692      99.481
  H      152.816     238.639      99.558
  H      150.639     238.765     100.908
  H      154.680     230.931     105.046
  H      153.073     231.624     104.782
  H      150.481     238.515      99.150
  P      151.529     235.999      96.915
  C      151.111     233.596      96.115
  O      151.937     234.446      96.889
  O      151.265     236.608      95.579
  O      150.209     235.998      97.824
  H      149.423     236.003      97.249
  H      150.209     233.349      96.680
  H      151.661     232.675      95.901
  H      150.836     234.072      95.169
  H      147.749     233.638     101.551
  H      148.613     234.360     100.215
  H      147.012     234.924     100.626

 3  4  5  6  7  8  9  10  11  12  22  25  29  30  31  32 0
 6-311+G(2d,p)
 ****
 33  36  37 0
 6-311+G(2d,p)
 ****
 1  2  13  14  15  16  17  18  19  20  21  23  24  26 0
 3-21G
 ****
 27  28  34  35  38  39  40  41  42  43  44  45  46  47  48 0
 3-21G
 ****


