%nproc=1
%NoSave
%Mem=1900MB
#P OB98/GEN NMR

erre ene a

0 1
  C      102.415     141.485     156.637
  O      101.757     142.602     156.075
  H      101.798     140.596     156.477
  H      102.561     141.619     157.712
  H      103.380     141.331     156.147
  P      102.373     144.061     156.310
  C      101.871     145.856     158.089
  O      102.015     144.466     157.822
  C      100.879     146.087     159.229
  O       99.547     145.748     158.761
  C      101.173     145.250     160.480
  O      100.872     146.039     161.632
  C      100.194     144.102     160.348
  O       99.914     143.509     161.602
  C       98.996     144.771     159.664
  N       98.167     143.786     158.970
  C       97.484     142.869     159.775
  O       97.584     142.920     161.001
  N       96.758     141.872     159.175
  C       96.758     141.764     157.882
  N       96.049     140.730     157.354
  C       97.484     142.694     156.996
  C       98.161     143.671     157.599
  O      102.029     145.093     155.289
  O      103.952     143.799     156.369
  H       99.176     142.874     161.504
  H      104.338     143.883     155.477
  H       97.458     142.556     155.925
  H       98.734     144.393     157.029
  H       98.376     145.301     160.398
  H      100.618     143.328     159.694
  H      102.210     144.900     160.525
  H      100.867     147.159     159.470
  H       95.584     140.105     158.003
  H      101.499     146.336     157.178
  H       96.009     140.519     156.369
  H      102.843     146.287     158.343
  P      101.979     146.282     162.770
  C      103.241     144.921     164.533
  O      102.116     144.952     163.661
  O      101.802     147.541     163.556
  O      103.360     146.321     161.954
  H      103.992     146.904     162.419
  H      103.244     144.001     165.079
  H      103.185     145.742     165.217
  H      104.140     144.997     163.958

 6  7  8  9  10  11  12  13  14  15  16  26  30  31  32  33  35 0
 6-311+G(2d,p)
 ****
 37  38 0
 6-311+G(2d,p)
 ****
 1  2  3  4  5  17  18  19  20  21  22  23  24  25 0
 3-21G
 ****
 27  28  29  34  36  39  40  41  42  43  44  45  46 0
 3-21G
 ****


