%nproc=1
%NoSave
%Mem=1900MB
#P OB98/GEN NMR

erre ene a

0 1
  C     -336.817    -600.057     -45.282
  O     -335.432    -600.123     -45.570
  H     -336.965    -599.780     -44.235
  H     -337.274    -599.290     -45.916
  H     -337.306    -601.014     -45.485
  P     -334.623    -601.374     -44.983
  C     -334.436    -600.353     -42.603
  O     -334.935    -601.415     -43.404
  C     -335.031    -600.430     -41.189
  O     -334.229    -601.359     -40.404
  C     -335.048    -599.083     -40.442
  O     -336.262    -599.006     -39.688
  C     -333.876    -599.202     -39.483
  O     -334.020    -598.378     -38.331
  C     -333.894    -600.699     -39.176
  N     -331.550    -604.340     -36.499
  C     -332.780    -604.281     -37.063
  N     -333.304    -603.287     -37.808
  C     -332.400    -602.310     -38.014
  C     -331.110    -602.231     -37.505
  C     -330.693    -603.310     -36.700
  N     -329.470    -603.345     -36.067
  N     -330.515    -601.046     -37.888
  C     -331.440    -600.404     -38.586
  N     -332.595    -601.134     -38.684
  O     -333.102    -600.865     -45.052
  O     -334.807    -602.661     -45.708
  H     -334.590    -598.835     -37.679
  H     -332.726    -601.072     -45.930
  H     -333.425    -605.139     -36.880
  H     -331.331    -599.423     -39.009
  H     -334.635    -600.966     -38.416
  H     -332.950    -598.915     -40.000
  H     -334.963    -598.211     -41.099
  H     -336.035    -600.848     -41.257
  H     -334.726    -599.398     -43.056
  H     -329.302    -604.105     -35.422
  H     -328.866    -602.541     -36.117
  H     -333.346    -600.413     -42.557
  P     -337.410    -598.037     -40.234
  C     -336.578    -596.223     -38.553
  O     -337.022    -596.517     -39.881
  O     -338.652    -598.338     -39.256
  O     -337.776    -598.269     -41.671
  H     -339.502    -598.247     -39.742
  H     -336.359    -595.179     -38.473
  H     -335.696    -596.790     -38.338
  H     -337.347    -596.481     -37.855

 6  7  8  9  10  11  12  13  14  15  25  28  32  33  34  35 0
 6-311+G(2d,p)
 ****
 36  39  40 0
 6-311+G(2d,p)
 ****
 1  2  3  4  5  16  17  18  19  20  21  22  23  24 0
 3-21G
 ****
 26  27  29  30  31  37  38  41  42  43  44  45  46  47 0
 3-21G
 ****
 48 0
 3-21G
 ****


