%nproc=1
%NoSave
%Mem=1900MB
#P OB98/GEN NMR

erre ene a

0 1
  C      137.838     262.647    -765.811
  O      138.309     261.965    -764.662
  P      139.371     260.782    -764.867
  C      138.024     258.930    -763.664
  O      139.178     259.761    -763.644
  C      138.029     257.968    -762.486
  O      138.954     256.876    -762.770
  C      138.468     258.597    -761.147
  O      137.599     258.110    -760.093
  C      139.843     258.003    -760.900
  O      140.180     257.975    -759.515
  C      139.673     256.628    -761.550
  N      144.186     255.389    -759.650
  C      143.087     255.895    -759.004
  N      143.216     256.177    -757.685
  N      141.934     256.126    -759.608
  C      141.938     255.774    -760.918
  C      142.974     255.240    -761.668
  C      144.250     255.059    -761.001
  O      145.294     254.687    -761.526
  N      142.589     255.001    -762.955
  C      141.323     255.384    -763.007
  N      140.898     255.912    -761.805
  O      140.765     261.493    -764.567
  O      139.368     260.153    -766.238
  H      139.555     257.375    -759.081
  H      141.377     261.383    -765.326
  H      145.041     255.249    -759.147
  H      140.689     255.328    -763.888
  H      139.039     255.988    -760.909
  H      140.599     258.603    -761.431
  H      144.057     255.992    -757.163
  H      138.482     259.690    -761.140
  H      142.406     256.541    -757.202
  H      137.031     257.511    -762.398
  H      138.003     258.356    -764.594
  H      137.124     259.568    -763.620
  P      136.463     259.162    -759.599
  C      137.332     258.906    -757.152
  O      136.233     258.841    -758.049
  O      135.126     258.608    -760.310
  O      136.752     260.587    -759.956
  H      134.485     259.334    -760.420
  H      138.221     259.335    -757.636
  H      137.566     257.893    -756.815
  H      137.055     259.523    -756.296
  H      137.141     263.403    -765.516
  H      137.355     261.952    -766.465
  H      138.663     263.101    -766.319

 3  4  5  6  7  8  9  10  11  12  23  26  30  31  33  0
 6-311+G(2d,p)
 ****
 35  36  37  38 0
 6-311+G(2d,p)
 ****
 1  2  13  14  15  16  17  18  19  20  21  22  24  25  27  28  29 0
 3-21G
 ****
 32  34  39  40  41  42  43  44  45  46  47  48  49 0
 3-21G
 ****


