%nproc=1
%NoSave
%Mem=1900MB
#P OB98/GEN NMR

erre ene a

0 1
  C     -726.872     142.194     420.301
  O     -727.140     141.460     421.476
  P     -727.958     142.127     422.677
  C     -729.911     140.458     422.711
  O     -729.519     141.805     422.460
  C     -731.275     140.185     422.059
  O     -731.161     140.286     420.614
  C     -731.814     138.784     422.331
  O     -732.355     138.693     423.641
  C     -732.846     138.650     421.215
  O     -734.074     139.305     421.562
  C     -732.152     139.389     420.057
  N     -732.958     136.421     415.977
  C     -733.804     137.062     416.795
  N     -733.525     137.810     417.892
  C     -732.199     137.829     418.116
  C     -731.199     137.181     417.379
  C     -731.625     136.468     416.247
  N     -730.755     135.853     415.359
  N     -729.957     137.414     417.942
  C     -730.190     138.166     418.995
  N     -731.513     138.499     419.101
  O     -727.644     143.571     422.938
  O     -727.580     141.232     423.950
  H     -734.668     139.208     420.787
  H     -727.143     141.784     424.623
  H     -734.862     136.994     416.548
  H     -729.445     138.512     419.694
  H     -732.862     140.014     419.495
  H     -733.080     137.597     420.990
  H     -731.021     138.033     422.189
  H     -731.975     140.949     422.402
  H     -729.988     140.311     423.794
  H     -731.164     135.503     414.503
  H     -729.788     136.142     415.369
  H     -729.159     139.779     422.312
  P     -731.778     137.601     424.663
  C     -731.585     139.035     426.789
  O     -730.888     138.407     425.735
  O     -731.125     136.417     424.034
  O     -733.071     137.179     425.523
  H     -732.992     136.237     425.778
  H     -732.024     139.973     426.420
  H     -730.881     139.259     427.593
  H     -732.387     138.389     427.179
  H     -726.318     141.584     419.618
  H     -726.300     143.064     420.547
  H     -727.795     142.490     419.847

 3  4  5  6  7  8  9  10  11  12  22  25  29  30  31  32 0
 6-311+G(2d,p)
 ****
 33  36  37 0
 6-311+G(2d,p)
 ****
 1  2  13  14  15  16  17  18  19  20  21  23  24  26 0
 3-21G
 ****
 27  28  34  35  38  39  40  41  42  43  44  45  46  47  48 0
 3-21G
 ****


