%nproc=1
%NoSave
%Mem=1900MB
#P OB98/GEN NMR

erre ene a

0 1
  C       24.929      37.699     -21.363
  O       23.510      37.762     -21.415
  P       22.705      36.372     -21.439
  C       22.806      36.463     -24.033
  O       23.048      35.701     -22.855
  C       22.073      35.622     -25.074
  O       22.764      34.375     -25.282
  C       20.650      35.244     -24.693
  O       19.727      36.286     -24.962
  C       20.406      34.067     -25.624
  O       20.093      34.545     -26.945
  C       21.771      33.371     -25.623
  N       20.927      28.374     -24.950
  C       20.675      29.197     -25.990
  N       20.919      30.520     -26.088
  C       21.448      30.992     -24.947
  C       21.725      30.280     -23.792
  C       21.454      28.904     -23.819
  N       21.739      28.061     -22.769
  N       22.261      31.108     -22.830
  C       22.316      32.295     -23.394
  N       21.846      32.275     -24.678
  O       21.184      36.839     -21.611
  O       22.897      35.510     -20.239
  H       19.209      34.958     -26.894
  H       20.582      36.145     -21.281
  H       20.226      28.729     -26.862
  H       22.695      33.189     -22.919
  H       22.037      32.975     -26.609
  H       19.569      33.439     -25.305
  H       20.593      34.905     -23.651
  H       22.084      36.176     -26.022
  H       23.763      36.791     -24.448
  H       21.687      27.068     -22.933
  H       22.311      28.420     -22.013
  H       22.215      37.346     -23.771
  P       18.213      36.056     -24.478
  C       17.231      35.831     -26.873
  O       17.523      35.199     -25.641
  O       17.561      37.509     -24.625
  O       18.092      35.515     -23.093
  H       16.806      37.607     -24.014
  H       17.064      35.062     -27.631
  H       18.060      36.466     -27.197
  H       16.324      36.433     -26.775
  H       25.330      38.691     -21.352
  H       25.295      37.176     -22.222
  H       25.231      37.183     -20.476

 3  4  5  6  7  8  9  10  11  12  22  25  29  30  31  32 0
 6-311+G(2d,p)
 ****
 33  36  37 0
 6-311+G(2d,p)
 ****
 1  2  13  14  15  16  17  18  19  20  21  23  24  26 0
 3-21G
 ****
 27  28  34  35  38  39  40  41  42  43  44  45  46  47  48 0
 3-21G
 ****


