%nproc=1
%NoSave
%Mem=1900MB
#P OB98/GEN NMR

erre ene a

0 1
  C     -536.063    -703.523     170.727
  O     -535.292    -702.923     171.749
  H     -536.483    -704.459     171.112
  H     -535.431    -703.751     169.858
  H     -536.879    -702.860     170.434
  P     -534.549    -701.547     171.372
  C     -532.635    -701.890     173.062
  O     -533.780    -701.126     172.720
  C     -532.068    -701.444     174.411
  O     -531.898    -700.004     174.394
  C     -532.986    -701.782     175.598
  O     -532.185    -702.164     176.720
  C     -533.677    -700.464     175.902
  O     -534.115    -700.374     177.255
  C     -532.599    -699.449     175.514
  N     -535.384    -695.558     177.299
  C     -534.856    -696.648     177.901
  N     -534.115    -697.622     177.361
  C     -533.892    -697.382     176.041
  C     -534.367    -696.320     175.287
  C     -535.158    -695.393     175.977
  N     -535.730    -694.295     175.356
  N     -533.966    -696.457     173.976
  C     -533.245    -697.558     173.938
  N     -533.182    -698.160     175.163
  O     -535.414    -700.490     170.774
  O     -533.351    -702.060     170.441
  H     -534.792    -701.067     177.401
  H     -532.928    -702.857     170.818
  H     -535.061    -696.735     178.977
  H     -532.755    -697.965     173.053
  H     -531.880    -699.273     176.327
  H     -534.557    -700.354     175.251
  H     -533.694    -702.571     175.362
  H     -531.073    -701.888     174.543
  H     -531.861    -701.777     172.289
  H     -536.276    -693.658     175.917
  H     -535.563    -694.138     174.363
  H     -532.929    -702.946     173.106
  P     -532.127    -703.714     177.099
  C     -532.456    -703.309     179.650
  O     -531.600    -703.846     178.625
  O     -531.460    -704.620     176.132
  O     -533.687    -704.094     177.262
  H     -533.820    -704.997     176.922
  H     -532.001    -703.456     180.607
  H     -533.401    -703.809     179.623
  H     -532.602    -702.262     179.481

 6  7  8  9  10  11  12  13  14  15  25  28  32  33  34  35 0
 6-311+G(2d,p)
 ****
 36  39  40 0
 6-311+G(2d,p)
 ****
 1  2  3  4  5  16  17  18  19  20  21  22  23  24 0
 3-21G
 ****
 26  27  29  30  31  37  38  41  42  43  44  45  46  47 0
 3-21G
 ****
 48 0
 3-21G
 ****


