%nproc=1
%NoSave
%Mem=1900MB
#P OB98/GEN NMR

erre ene a

0 1
  C      -70.343     -33.144     462.128
  O      -70.056     -32.143     461.172
  H      -71.206     -33.721     461.783
  H      -70.584     -32.690     463.092
  H      -69.489     -33.818     462.235
  P      -68.834     -31.158     461.507
  C      -68.149     -30.986     459.017
  O      -68.632     -30.302     460.166
  C      -68.376     -30.147     457.759
  O      -69.696     -30.374     457.241
  C      -68.254     -28.644     457.979
  O      -66.897     -28.241     457.933
  C      -69.035     -28.115     456.784
  O      -68.192     -28.133     455.614
  C      -70.165     -29.145     456.632
  N      -73.920     -25.645     456.820
  C      -72.705     -25.627     456.232
  N      -71.738     -26.567     456.269
  C      -72.126     -27.625     456.998
  C      -73.336     -27.782     457.661
  C      -74.261     -26.734     457.545
  N      -75.501     -26.757     458.152
  N      -73.381     -28.998     458.313
  C      -72.243     -29.585     458.001
  N      -71.436     -28.780     457.237
  O      -67.614     -31.806     462.064
  O      -69.551     -30.107     462.482
  H      -67.451     -27.529     455.792
  H      -70.444     -29.893     462.158
  H      -72.477     -24.732     455.656
  H      -71.966     -30.596     458.281
  H      -70.376     -29.361     455.579
  H      -69.365     -27.083     456.919
  H      -68.756     -28.324     458.902
  H      -67.662     -30.486     456.998
  H      -68.655     -31.952     458.911
  H      -76.016     -25.891     458.179
  H      -75.697     -27.512     458.795
  H      -67.079     -31.170     459.164
  P      -66.411     -26.880     458.626
  C      -63.952     -27.633     458.625
  O      -64.893     -26.684     458.138
  O      -66.635     -26.818     460.095
  O      -67.188     -25.730     457.831
  H      -67.172     -24.898     458.339
  H      -62.981     -27.404     458.237
  H      -64.240     -28.614     458.311
  H      -63.927     -27.594     459.694

 6  7  8  9  10  11  12  13  14  15  25  28  32  33  34  35 0
 6-311+G(2d,p)
 ****
 36  39  40 0
 6-311+G(2d,p)
 ****
 1  2  3  4  5  16  17  18  19  20  21  22  23  24 0
 3-21G
 ****
 26  27  29  30  31  37  38  41  42  43  44  45  46  47 0
 3-21G
 ****
 48 0
 3-21G
 ****


