%nproc=1
%NoSave
%Mem=1900MB
#P OB98/GEN NMR

erre ene a

0 1
  C     -618.768     452.417    -423.120
  O     -619.463     451.273    -423.579
  H     -619.349     453.303    -423.377
  H     -617.788     452.474    -423.603
  H     -618.644     452.389    -422.036
  P     -619.012     449.830    -423.051
  C     -617.766     449.163    -425.215
  O     -617.661     449.450    -423.822
  C     -616.456     448.564    -425.746
  O     -616.481     447.124    -425.542
  C     -616.303     448.804    -427.252
  O     -614.931     448.863    -427.646
  C     -616.943     447.566    -427.861
  O     -616.486     447.291    -429.180
  C     -616.551     446.492    -426.841
  N     -618.155     442.178    -429.026
  C     -617.288     443.134    -429.516
  N     -616.776     442.908    -430.746
  N     -616.969     444.219    -428.865
  C     -617.605     444.349    -427.680
  C     -618.508     443.494    -427.097
  C     -618.829     442.269    -427.812
  O     -619.607     441.398    -427.432
  N     -618.953     443.969    -425.890
  C     -618.330     445.110    -425.744
  N     -617.483     445.384    -426.790
  O     -620.087     448.834    -423.717
  O     -618.966     449.674    -421.561
  H     -615.520     447.229    -429.159
  H     -620.135     448.006    -423.206
  H     -618.350     441.353    -429.555
  H     -618.449     445.787    -424.889
  H     -615.556     446.088    -427.063
  H     -618.015     447.729    -427.916
  H     -617.154     442.191    -431.358
  H     -616.807     449.707    -427.585
  H     -616.399     443.727    -431.244
  H     -615.604     448.952    -425.169
  H     -617.990     450.103    -425.715
  H     -618.600     448.492    -425.399
  P     -614.256     450.297    -427.861
  C     -614.636     450.198    -430.480
  O     -614.706     450.912    -429.260
  O     -612.701     449.960    -428.079
  O     -614.465     451.254    -426.721
  H     -612.167     450.328    -427.346
  H     -614.992     450.817    -431.277
  H     -615.242     449.319    -430.414
  H     -613.621     449.918    -430.672

 6  7  8  9  10  11  12  13  14  15  26  29  33  34 0
 6-311+G(2d,p)
 ****
 36  38  39  40  41 0
 6-311+G(2d,p)
 ****
 1  2  3  4  5  16  17  18  19  20  21  22  23  24  25 0
 3-21G
 ****
 27  28  30  31  32  35  37  42  43  44  45  46  47 0
 3-21G
 ****
 48  49 0
 3-21G
 ****


