%nproc=1
%NoSave
%Mem=1900MB
#P OB98/GEN NMR

erre ene a

0 1
  C      -42.467    -889.140     384.691
  O      -41.244    -889.400     385.380
  P      -40.669    -890.900     385.376
  C      -39.307    -890.690     383.188
  O      -40.390    -891.350     383.858
  C      -38.509    -891.690     382.332
  O      -37.933    -892.700     383.211
  C      -39.341    -892.470     381.299
  O      -39.493    -891.900     380.005
  C      -38.493    -893.720     381.129
  O      -37.441    -893.480     380.178
  C      -37.908    -893.970     382.515
  N      -38.157    -898.950     383.681
  C      -37.300    -898.250     382.883
  N      -37.321    -896.930     382.623
  C      -38.304    -896.300     383.295
  C      -39.240    -896.900     384.132
  C      -39.149    -898.280     384.309
  N      -40.020    -899.000     385.106
  N      -40.117    -895.950     384.635
  C      -39.725    -894.800     384.080
  N      -38.630    -894.970     383.280
  O      -41.415    -891.880     386.209
  O      -39.183    -890.690     385.950
  H      -37.026    -894.340     380.004
  H      -38.948    -891.440     386.531
  H      -36.521    -898.810     382.394
  H      -40.207    -893.850     384.240
  H      -36.862    -894.280     382.474
  H      -39.073    -894.570     380.730
  H      -40.332    -892.730     381.704
  H      -37.685    -891.170     381.843
  H      -38.641    -890.220     383.914
  H      -39.903    -900.000     385.142
  H      -40.790    -898.530     385.540
  H      -39.740    -889.890     382.589
  P      -40.898    -891.990     379.225
  C      -41.121    -889.440     379.827
  O      -41.741    -890.720     379.720
  O      -41.608    -893.290     379.339
  O      -40.485    -891.590     377.724
  H      -40.215    -890.670     377.613
  H      -41.892    -888.690     379.970
  H      -40.539    -889.200     378.933
  H      -40.460    -889.440     380.705
  H      -42.716    -888.104     384.785
  H      -43.249    -889.734     385.116
  H      -42.353    -889.387     383.656

 3  4  5  6  7  8  9  10  11  12  22  25  29  30  31  32 0
 6-311+G(2d,p)
 ****
 33  36  37 0
 6-311+G(2d,p)
 ****
 1  2  13  14  15  16  17  18  19  20  21  23  24  26 0
 3-21G
 ****
 27  28  34  35  38  39  40  41  42  43  44  45  46  47  48 0
 3-21G
 ****


