%nproc=1
%NoSave
%Mem=1900MB
#P OB98/GEN NMR

erre ene a

0 1
  C     -113.386      51.093      24.935
  O     -114.240      51.896      24.146
  H     -113.956      50.708      25.785
  H     -112.544      51.679      25.315
  H     -113.017      50.244      24.352
  P     -113.608      52.677      22.894
  C     -113.840      54.944      24.130
  O     -112.959      54.000      23.539
  C     -113.060      56.168      24.604
  O     -112.249      55.852      25.753
  C     -112.084      56.742      23.584
  O     -112.715      57.452      22.533
  C     -111.261      57.648      24.486
  O     -112.012      58.839      24.784
  C     -111.110      56.760      25.746
  N     -109.855      56.006      25.766
  C     -108.813      56.548      26.531
  O     -108.969      57.603      27.145
  N     -107.602      55.897      26.552
  C     -107.440      54.815      25.856
  N     -106.206      54.235      25.874
  C     -108.516      54.201      25.052
  C     -109.681      54.845      25.047
  O     -114.520      52.913      21.733
  O     -112.303      51.831      22.514
  H     -112.889      58.553      25.099
  H     -111.880      52.268      21.734
  H     -108.325      53.303      24.485
  H     -110.515      54.466      24.466
  H     -111.174      57.365      26.658
  H     -110.315      57.963      24.036
  H     -111.429      55.959      23.186
  H     -113.795      56.921      24.927
  H     -105.483      54.706      26.403
  H     -114.353      54.457      24.965
  H     -105.925      53.572      25.160
  H     -114.584      55.272      23.398
  P     -112.076      57.347      21.062
  C     -110.527      59.422      21.350
  O     -110.622      58.021      21.141
  O     -112.937      58.400      20.223
  O     -112.082      55.980      20.450
  H     -113.686      57.962      19.772
  H     -109.497      59.709      21.377
  H     -110.993      59.676      22.279
  H     -111.020      59.936      20.551

 6  7  8  9  10  11  12  13  14  15  16  26  30  31  32  33  35 0
 6-311+G(2d,p)
 ****
 37  38 0
 6-311+G(2d,p)
 ****
 1  2  3  4  5  17  18  19  20  21  22  23  24  25 0
 3-21G
 ****
 27  28  29  34  36  39  40  41  42  43  44  45  46 0
 3-21G
 ****


