%nproc=1
%NoSave
%Mem=1900MB
#P OB98/GEN NMR

erre ene a

0 1
  C      -17.435      68.549    -598.159
  O      -18.719      69.148    -598.211
  P      -18.887      70.682    -598.652
  C      -19.640      70.165    -601.059
  O      -18.624      70.734    -600.237
  C      -19.978      71.096    -602.217
  O      -20.627      72.278    -601.699
  C      -18.753      71.552    -603.007
  O      -19.096      71.660    -604.394
  C      -18.467      72.951    -602.475
  O      -17.774      73.749    -603.447
  C      -19.878      73.434    -602.129
  N      -19.477      78.415    -600.953
  C      -19.458      77.773    -602.140
  N      -19.548      76.442    -602.376
  C      -19.722      75.767    -601.228
  C      -19.761      76.296    -599.944
  C      -19.631      77.685    -599.824
  N      -19.670      78.347    -598.615
  N      -19.928      75.285    -599.011
  C      -19.999      74.178    -599.720
  N      -19.889      74.420    -601.066
  O      -18.087      71.660    -597.864
  O      -20.458      70.965    -598.537
  H      -17.658      74.641    -603.059
  H      -20.616      71.866    -598.198
  H      -19.358      78.406    -603.014
  H      -20.120      73.183    -599.311
  H      -20.388      73.859    -603.006
  H      -17.833      72.884    -601.586
  H      -17.890      70.886    -602.885
  H      -20.689      70.589    -602.882
  H      -20.537      70.015    -600.448
  H      -19.686      79.350    -598.633
  H      -19.959      77.827    -597.795
  H      -19.306      69.185    -601.427
  P      -18.092      70.942    -605.422
  C      -19.429      68.724    -605.683
  O      -18.295      69.374    -605.162
  O      -16.706      71.480    -605.325
  O      -18.827      71.237    -606.818
  H      -19.789      71.380    -606.697
  H      -19.408      67.674    -605.373
  H      -19.417      68.765    -606.779
  H      -20.350      69.187    -605.308
  H      -17.529      67.530    -597.846
  H      -16.821      69.081    -597.462
  H      -16.986      68.584    -599.129

 3  4  5  6  7  8  9  10  11  12  22  25  29  30  31  32 0
 6-311+G(2d,p)
 ****
 33  36  37 0
 6-311+G(2d,p)
 ****
 1  2  13  14  15  16  17  18  19  20  21  23  24  26 0
 3-21G
 ****
 27  28  34  35  38  39  40  41  42  43  44  45  46  47  48 0
 3-21G
 ****


