%nproc=1
%NoSave
%Mem=1900MB
#P OB98/GEN NMR

erre ene a

0 1
  C     -232.609    -136.607    -293.437
  O     -232.879    -137.179    -292.171
  H     -233.457    -135.984    -293.726
  H     -232.474    -137.390    -294.186
  H     -231.712    -135.984    -293.377
  P     -231.767    -138.170    -291.577
  C     -233.638    -139.198    -290.128
  O     -232.343    -138.597    -290.136
  C     -234.260    -139.089    -288.730
  O     -235.053    -137.876    -288.671
  C     -235.174    -140.264    -288.381
  O     -235.015    -140.593    -286.999
  C     -236.570    -139.709    -288.616
  O     -237.561    -140.383    -287.835
  C     -236.387    -138.235    -288.251
  N     -241.379    -137.314    -288.738
  C     -240.689    -138.117    -287.905
  N     -239.345    -138.293    -287.831
  C     -238.717    -137.485    -288.706
  C     -239.288    -136.621    -289.619
  C     -240.698    -136.548    -289.626
  N     -241.411    -135.750    -290.486
  N     -238.311    -136.000    -290.381
  C     -237.170    -136.481    -289.917
  N     -237.366    -137.398    -288.921
  O     -230.370    -137.649    -291.577
  O     -232.006    -139.490    -292.449
  H     -237.374    -140.198    -286.890
  H     -232.960    -139.689    -292.538
  H     -241.282    -138.707    -287.211
  H     -236.181    -136.208    -290.279
  H     -236.476    -138.044    -287.174
  H     -236.838    -139.818    -289.672
  H     -234.982    -141.142    -288.997
  H     -233.458    -138.976    -287.990
  H     -233.570    -140.252    -290.410
  H     -242.415    -135.753    -290.412
  H     -240.918    -135.157    -291.139
  H     -234.254    -138.676    -290.858
  P     -235.086    -142.134    -286.572
  C     -236.488    -141.751    -284.432
  O     -235.249    -142.217    -284.967
  O     -234.035    -143.023    -287.150
  O     -236.545    -142.568    -287.082
  H     -236.502    -143.485    -287.417
  H     -236.478    -141.855    -283.367
  H     -237.292    -142.328    -284.840
  H     -236.622    -140.721    -284.688

 6  7  8  9  10  11  12  13  14  15  25  28  32  33  34  35 0
 6-311+G(2d,p)
 ****
 36  39  40 0
 6-311+G(2d,p)
 ****
 1  2  3  4  5  16  17  18  19  20  21  22  23  24 0
 3-21G
 ****
 26  27  29  30  31  37  38  41  42  43  44  45  46  47 0
 3-21G
 ****
 48 0
 3-21G
 ****


