%nproc=1
%NoSave
%Mem=1900MB
#P OB98/GEN NMR

erre ene a

0 1
  C       27.162      76.995      12.233
  O       26.945      76.796      10.847
  P       27.963      75.928       9.973
  C       30.376      76.350       9.030
  O       29.154      76.877       9.497
  C       31.205      77.487       8.418
  O       30.663      77.863       7.135
  C       31.204      78.725       9.311
  O       32.345      78.734      10.154
  C       31.187      79.860       8.304
  O       32.514      80.112       7.808
  C       30.299      79.268       7.183
  N       28.834      79.355       7.338
  C       28.052      79.772       6.265
  O       28.504      80.052       5.160
  N       26.708      79.883       6.517
  C       26.089      79.579       7.695
  O       24.944      79.906       7.982
  C       26.922      78.892       8.687
  C       28.237      78.835       8.478
  O       27.144      75.659       8.626
  O       28.433      74.660      10.606
  H       32.464      80.906       7.246
  H       26.739      74.771       8.641
  H       26.153      80.318       5.787
  H       26.447      78.507       9.579
  H       28.880      78.364       9.218
  H       30.548      79.710       6.212
  H       30.852      80.788       8.762
  H       30.280      78.767       9.901
  H       32.231      77.132       8.259
  H       30.189      75.570       8.283
  H       30.925      75.883       9.854
  P       32.270      79.461      11.577
  C       32.078      81.909      12.314
  O       32.404      81.027      11.258
  O       33.201      78.937      12.619
  O       30.736      79.277      12.003
  H       30.651      78.516      12.614
  H       32.379      82.920      12.033
  H       32.602      81.622      13.231
  H       30.997      81.896      12.484
  H       26.375      77.599      12.634
  H       28.100      77.488      12.380
  H       27.175      76.048      12.732

 3  4  5  6  7  8  9  10  11  12  13  23  28  29  30  31  32 0
 6-311+G(2d,p)
 ****
 33  34 0
 6-311+G(2d,p)
 ****
 1  2  14  15  16  17  18  19  20  21  22  24  25  26  27 0
 3-21G
 ****
 35  36  37  38  39  40  41  42  43  44  45 0
 3-21G
 ****


