%nproc=1
%NoSave
%Mem=1900MB
#P OB98/GEN NMR

erre ene a

0 1
  C     -330.738     370.034     274.480
  O     -330.161     369.730     275.766
  P     -331.014     369.838     277.118
  C     -329.474     371.747     277.885
  O     -330.105     370.526     278.254
  C     -328.892     372.480     279.116
  O     -329.913     372.812     280.054
  C     -327.851     371.650     279.876
  O     -326.597     371.687     279.217
  C     -327.890     372.361     281.239
  O     -327.069     373.545     281.216
  C     -329.361     372.717     281.387
  N     -333.454     372.086     284.388
  C     -332.979     373.162     283.715
  N     -331.894     373.249     282.939
  C     -331.256     372.068     282.867
  C     -331.618     370.881     283.498
  C     -332.779     370.923     284.291
  N     -333.257     369.828     284.988
  N     -330.714     369.870     283.198
  C     -329.832     370.427     282.398
  N     -330.117     371.757     282.168
  O     -331.650     368.539     277.537
  O     -332.143     370.934     276.820
  H     -327.253     374.018     280.376
  H     -332.933     370.763     277.357
  H     -333.574     374.085     283.817
  H     -328.986     369.928     281.957
  H     -329.505     373.696     281.838
  H     -327.501     371.727     282.051
  H     -328.209     370.623     279.995
  H     -328.456     373.409     278.751
  H     -330.223     372.403     277.411
  H     -334.071     369.948     285.549
  H     -332.734     368.964     284.950
  H     -328.678     371.543     277.162
  P     -326.039     370.372     278.494
  C     -324.651     369.677     280.527
  O     -324.613     370.030     279.167
  O     -326.064     370.420     277.000
  O     -327.009     369.193     279.048
  H     -327.078     368.502     278.375
  H     -324.697     370.599     281.132
  H     -323.737     369.141     280.771
  H     -325.513     369.033     280.769
  H     -330.000     369.898     273.717
  H     -331.077     371.049     274.472
  H     -331.565     369.381     274.297

 3  4  5  6  7  8  9  10  11  12  22  25  29  30  31  32 0
 6-311+G(2d,p)
 ****
 33  36  37 0
 6-311+G(2d,p)
 ****
 1  2  13  14  15  16  17  18  19  20  21  23  24  26 0
 3-21G
 ****
 27  28  34  35  38  39  40  41  42  43  44  45  46  47  48 0
 3-21G
 ****


