%nproc=1
%NoSave
%Mem=1900MB
#P OB98/GEN NMR

erre ene a

0 1
  C       43.400      55.469      35.687
  O       43.939      54.354      36.366
  P       43.502      53.932      37.845
  C       43.272      51.382      37.395
  O       42.613      52.594      37.743
  C       42.299      50.223      37.137
  O       41.444      50.552      36.023
  C       43.074      48.964      36.728
  O       43.635      48.121      37.715
  C       42.178      48.258      35.718
  O       41.417      47.200      36.305
  C       41.252      49.374      35.225
  N       40.640      47.929      30.401
  C       40.048      47.422      31.543
  N       39.359      46.269      31.392
  N       40.146      47.984      32.721
  C       40.950      49.076      32.732
  C       41.574      49.679      31.665
  C       41.423      49.073      30.363
  O       41.998      49.441      29.341
  N       42.365      50.728      32.063
  C       42.250      50.737      33.376
  N       41.433      49.728      33.831
  O       43.044      55.030      38.749
  O       44.895      53.368      38.435
  H       41.008      46.688      35.581
  H       44.918      53.587      39.387
  H       40.590      47.408      29.534
  H       42.760      51.425      34.041
  H       40.199      49.083      35.347
  H       42.775      47.802      34.918
  H       39.383      45.735      30.535
  H       43.940      49.303      36.145
  H       39.057      45.781      32.229
  H       41.631      50.070      37.991
  H       43.959      51.137      38.212
  H       43.883      51.542      36.501
  P       45.177      47.713      37.849
  C       45.392      48.869      40.122
  O       45.903      48.777      38.802
  O       45.801      48.040      36.410
  O       45.418      46.280      38.205
  H       46.612      47.517      36.274
  H       45.737      49.803      40.573
  H       45.766      48.026      40.717
  H       44.296      48.856      40.121
  H       43.846      55.546      34.718
  H       43.603      56.359      36.245
  H       42.342      55.346      35.584

 3  4  5  6  7  8  9  10  11  12  23  26  30  31 0
 6-311+G(2d,p)
 ****
 33  35  36  37  38 0
 6-311+G(2d,p)
 ****
 1  2  13  14  15  16  17  18  19  20  21  22  24  25 0
 3-21G
 ****
 27  28  29  32  34  39  40  41  42  43  44  45  46  47  48  49 0
 3-21G
 ****


