%nproc=1
%NoSave
%Mem=1900MB
#P OB98/GEN NMR

erre ene a

0 1
  C     -161.255     134.078     283.897
  O     -160.451     133.868     285.042
  H     -162.224     134.469     284.219
  H     -161.415     133.143     283.353
  H     -160.783     134.814     283.241
  P     -159.084     133.037     284.863
  C     -157.663     134.693     286.239
  O     -158.210     133.376     286.168
  C     -157.143     135.001     287.645
  O     -158.235     135.135     288.577
  C     -156.253     133.912     288.229
  O     -155.021     133.740     287.578
  C     -156.272     134.263     289.713
  O     -155.332     135.287     290.037
  C     -157.717     134.793     289.884
  N     -158.581     133.843     290.573
  C     -158.571     133.904     291.963
  O     -157.869     134.693     292.603
  N     -159.374     133.007     292.607
  C     -160.131     132.040     292.006
  O     -160.821     131.248     292.650
  C     -160.071     131.997     290.544
  C     -159.311     132.885     289.896
  O     -158.361     133.257     283.568
  O     -159.526     131.518     285.110
  H     -155.230     135.282     291.007
  H     -158.831     130.891     284.787
  H     -159.398     133.048     293.612
  H     -160.652     131.233     290.034
  H     -159.251     132.873     288.810
  H     -157.711     135.725     290.463
  H     -156.044     133.401     290.340
  H     -156.782     132.955     288.131
  H     -156.615     135.963     287.607
  H     -158.459     135.395     285.986
  H     -156.857     134.793     285.504
  P     -154.460     132.321     287.098
  C     -153.482     132.941     284.749
  O     -153.230     132.571     286.100
  O     -155.480     131.300     286.714
  O     -153.713     131.797     288.429
  H     -153.818     130.825     288.450
  H     -152.552     133.065     284.234
  H     -154.028     133.861     284.727
  H     -154.055     132.175     284.270

 6  7  8  9  10  11  12  13  14  15  16  26  31  32  33  34  35 0
 6-311+G(2d,p)
 ****
 36  37 0
 6-311+G(2d,p)
 ****
 1  2  3  4  5  17  18  19  20  21  22  23  24  25 0
 3-21G
 ****
 27  28  29  30  38  39  40  41  42  43  44  45 0
 3-21G
 ****


