%nproc=1
%NoSave
%Mem=1900MB
#P OB98/GEN NMR

erre ene a

0 1
  C      484.190    -212.117     380.798
  O      484.044    -211.089     379.842
  H      483.347    -212.802     380.708
  H      484.188    -211.685     381.803
  H      485.118    -212.678     380.643
  P      485.326    -210.222     379.439
  C      484.441    -209.736     377.061
  O      484.886    -209.183     378.297
  C      484.145    -208.645     376.033
  O      485.203    -207.666     376.042
  C      484.067    -209.197     374.604
  O      482.788    -209.680     374.227
  C      484.458    -207.975     373.774
  O      483.311    -207.169     373.460
  C      485.415    -207.215     374.700
  N      489.542    -205.224     372.427
  C      488.238    -204.759     372.417
  N      488.011    -203.651     371.681
  N      487.264    -205.346     373.059
  C      487.627    -206.495     373.672
  C      488.879    -207.066     373.728
  C      489.968    -206.372     373.081
  O      491.143    -206.731     373.072
  N      488.860    -208.262     374.405
  C      487.582    -208.456     374.674
  N      486.807    -207.374     374.318
  O      486.238    -211.263     378.627
  O      486.092    -209.632     380.584
  H      483.615    -206.408     372.927
  H      487.178    -211.043     378.760
  H      490.257    -204.714     371.941
  H      487.173    -209.330     375.163
  H      485.206    -206.136     374.688
  H      484.900    -208.278     372.824
  H      488.703    -203.211     371.102
  H      484.823    -209.973     374.448
  H      487.038    -203.391     371.493
  H      483.219    -208.127     376.310
  H      483.532    -210.300     377.286
  H      485.181    -210.441     376.673
  P      482.629    -210.791     373.095
  C      480.068    -210.747     373.676
  O      481.084    -210.905     372.711
  O      482.916    -212.153     373.883
  O      483.525    -210.631     371.905
  H      483.836    -212.449     373.738
  H      479.112    -210.861     373.209
  H      480.138    -209.772     374.111
  H      480.183    -211.488     374.440

 6  7  8  9  10  11  12  13  14  15  26  29  33  34 0
 6-311+G(2d,p)
 ****
 36  38  39  40  41 0
 6-311+G(2d,p)
 ****
 1  2  3  4  5  16  17  18  19  20  21  22  23  24  25 0
 3-21G
 ****
 27  28  30  31  32  35  37  42  43  44  45  46  47 0
 3-21G
 ****
 48  49 0
 3-21G
 ****


