%nproc=1
%NoSave
%Mem=1900MB
#P OB98/GEN NMR

erre ene a

0 1
  C      -16.364       7.540      -0.666
  O      -16.244       7.245       0.709
  H      -16.477       6.601      -1.216
  H      -15.464       8.047      -1.024
  H      -17.242       8.163      -0.855
  P      -16.199       8.454       1.759
  C      -17.746      10.425       2.360
  O      -17.424       9.425       1.402
  C      -17.851      11.785       1.676
  O      -16.541      12.252       1.285
  C      -18.685      11.771       0.400
  O      -20.065      11.714       0.700
  C      -18.215      13.061      -0.253
  O      -18.859      14.202       0.335
  C      -16.707      13.053       0.093
  N      -15.876      12.548      -1.001
  C      -15.665      13.421      -2.063
  O      -16.138      14.554      -2.110
  N      -14.921      12.926      -3.102
  C      -14.461      11.646      -3.214
  O      -13.993      11.185      -4.250
  C      -14.649      10.794      -2.031
  C      -15.351      11.271      -1.001
  O      -14.879       9.132       1.910
  O      -16.670       7.777       3.133
  H      -15.888       7.595       3.687
  H      -18.718      14.133       1.299
  H      -14.801      13.534      -3.898
  H      -14.242       9.791      -2.055
  H      -15.529      10.649      -0.130
  H      -16.365      14.065       0.341
  H      -18.430      13.089      -1.323
  H      -18.389      10.927      -0.233
  H      -18.262      12.501       2.400
  H      -16.950      10.456       3.112
  H      -18.689      10.162       2.850
  P      -21.113      11.095      -0.337
  C      -21.534       8.839      -1.476
  O      -20.615       9.623      -0.728
  O      -21.440      11.967      -1.503
  O      -22.419      10.810       0.546
  H      -23.190      11.234       0.122
  H      -21.102       7.882      -1.681
  H      -21.758       9.334      -2.398
  H      -22.435       8.711      -0.913

 6  7  8  9  10  11  12  13  14  15  16  27  31  32  33  34  35 0
 6-311+G(2d,p)
 ****
 36  37 0
 6-311+G(2d,p)
 ****
 1  2  3  4  5  17  18  19  20  21  22  23  24  25 0
 3-21G
 ****
 26  28  29  30  38  39  40  41  42  43  44  45 0
 3-21G
 ****


