%nproc=1
%NoSave
%Mem=1900MB
#P OB98/GEN NMR

erre ene a

0 1
  C     -190.398     292.100     -75.957
  O     -191.051     293.170     -76.604
  H     -191.157     291.400     -75.590
  H     -189.825     292.472     -75.107
  H     -189.737     291.565     -76.644
  P     -190.185     294.166     -77.511
  C     -188.531     294.726     -75.610
  O     -188.698     294.180     -76.911
  C     -187.105     294.495     -75.101
  O     -186.865     293.067     -74.995
  C     -186.059     295.051     -76.081
  O     -184.857     295.433     -75.422
  C     -185.778     293.856     -76.978
  O     -184.508     293.933     -77.630
  C     -185.893     292.697     -75.985
  N     -184.530     288.888     -79.095
  C     -183.904     290.100     -78.863
  N     -182.756     290.322     -79.558
  N     -184.366     291.017     -78.058
  C     -185.553     290.687     -77.488
  C     -186.280     289.533     -77.649
  C     -185.741     288.508     -78.522
  O     -186.265     287.433     -78.776
  N     -187.437     289.567     -76.915
  C     -187.419     290.735     -76.317
  N     -186.278     291.448     -76.611
  O     -190.737     295.615     -77.110
  O     -190.275     293.935     -78.995
  H     -184.400     293.118     -78.152
  H     -190.547     296.258     -77.820
  H     -184.113     288.207     -79.701
  H     -188.189     291.114     -75.653
  H     -184.938     292.531     -75.475
  H     -186.538     293.827     -77.760
  H     -182.479     289.733     -80.324
  H     -186.432     295.894     -76.657
  H     -182.464     291.300     -79.647
  H     -186.997     294.911     -74.092
  H     -189.259     294.229     -74.959
  H     -188.773     295.791     -75.610
  P     -184.622     296.984     -75.088
  C     -183.728     297.730     -77.471
  O     -184.682     297.841     -76.436
  O     -183.086     297.052     -74.658
  O     -185.528     297.523     -74.028
  H     -183.004     297.319     -73.723
  H     -183.982     298.402     -78.264
  H     -183.720     296.727     -77.843
  H     -182.759     297.977     -77.091

 6  7  8  9  10  11  12  13  14  15  26  29  33  34 0
 6-311+G(2d,p)
 ****
 36  38  39  40  41 0
 6-311+G(2d,p)
 ****
 1  2  3  4  5  16  17  18  19  20  21  22  23  24  25 0
 3-21G
 ****
 27  28  30  31  32  35  37  42  43  44  45  46  47 0
 3-21G
 ****
 48  49 0
 3-21G
 ****


