%nproc=1
%NoSave
%Mem=1900MB
#P OB98/GEN NMR

erre ene a

0 1
  C     -460.805    -646.065    -898.920
  O     -461.240    -647.230    -898.260
  H     -460.949    -646.197    -900.000
  H     -459.740    -645.897    -898.730
  H     -461.382    -645.192    -898.590
  P     -461.085    -647.242    -896.660
  C     -461.908    -648.869    -894.800
  O     -462.110    -648.356    -896.120
  C     -463.247    -649.037    -894.090
  O     -463.798    -647.750    -893.730
  C     -464.313    -649.764    -894.900
  O     -464.146    -651.172    -894.830
  C     -465.585    -649.275    -894.230
  O     -465.851    -650.020    -893.026
  C     -465.243    -647.819    -893.910
  N     -469.225    -645.902    -896.370
  C     -469.172    -646.802    -895.320
  N     -470.351    -647.318    -894.910
  N     -468.057    -647.191    -894.750
  C     -466.958    -646.620    -895.280
  C     -466.875    -645.696    -896.300
  C     -468.117    -645.253    -896.910
  O     -468.245    -644.411    -897.800
  N     -465.580    -645.336    -896.570
  C     -464.867    -646.075    -895.720
  N     -465.658    -646.873    -894.940
  O     -461.772    -645.864    -896.200
  O     -459.688    -647.354    -896.150
  H     -465.934    -650.968    -893.240
  H     -461.333    -645.543    -895.400
  H     -470.107    -645.637    -896.750
  H     -463.792    -646.052    -895.640
  H     -465.699    -647.476    -892.980
  H     -466.455    -649.405    -894.870
  H     -471.158    -647.323    -895.510
  H     -464.296    -649.415    -895.950
  H     -470.320    -647.998    -894.160
  H     -463.050    -649.579    -893.150
  H     -461.287    -648.151    -894.240
  H     -461.386    -649.824    -894.860
  P     -465.165    -652.097    -895.650
  C     -465.106    -654.571    -896.430
  O     -464.358    -653.423    -896.040
  O     -465.298    -651.329    -897.050
  O     -466.491    -652.296    -895.000
  H     -466.087    -651.631    -897.540
  H     -464.435    -655.373    -896.659
  H     -465.692    -654.338    -897.294
  H     -465.752    -654.864    -895.629

 6  7  8  9  10  11  12  13  14  15  26  29  33  34 0
 6-311+G(2d,p)
 ****
 36  38  39  40  41 0
 6-311+G(2d,p)
 ****
 1  2  3  4  5  16  17  18  19  20  21  22  23  24  25 0
 3-21G
 ****
 27  28  30  31  32  35  37  42  43  44  45  46  47 0
 3-21G
 ****
 48  49 0
 3-21G
 ****


