%nproc=1
%NoSave
%Mem=1900MB
#P OB98/GEN NMR

erre ene a

0 1
  C      163.858     -27.430      -2.650
  O      165.121     -27.846      -2.162
  P      166.465     -27.186      -2.733
  C      167.678     -27.008      -4.994
  O      166.658     -27.670      -4.251
  C      168.182     -27.905      -6.122
  O      168.574     -29.201      -5.615
  C      167.143     -28.199      -7.194
  O      166.900     -27.077      -8.023
  C      167.777     -29.395      -7.895
  O      168.782     -28.968      -8.825
  C      168.425     -30.141      -6.708
  N      167.660     -31.313      -6.303
  C      167.619     -32.368      -7.220
  O      168.141     -32.250      -8.331
  N      166.982     -33.529      -6.853
  C      166.337     -33.582      -5.729
  N      165.775     -34.777      -5.393
  C      166.221     -32.431      -4.810
  C      166.920     -31.348      -5.144
  O      167.670     -27.348      -1.866
  O      166.094     -25.636      -2.903
  H      166.789     -25.097      -2.478
  H      168.893     -29.697      -9.467
  H      165.614     -32.508      -3.918
  H      166.911     -30.463      -4.515
  H      169.443     -30.457      -6.970
  H      167.044     -29.985      -8.456
  H      166.205     -28.512      -6.718
  H      169.067     -27.427      -6.566
  H      165.890     -35.548      -6.040
  H      168.504     -26.770      -4.317
  H      165.543     -35.019      -4.434
  H      167.279     -26.070      -5.395
  P      165.370     -26.760      -8.382
  C      163.364     -28.130      -9.280
  O      164.764     -28.061      -9.091
  O      165.487     -25.695      -9.578
  O      164.562     -26.215      -7.249
  H      164.769     -25.040      -9.504
  H      163.150     -28.871     -10.054
  H      162.954     -27.164      -9.591
  H      162.885     -28.447      -8.348
  H      163.085     -27.979      -2.154
  H      163.805     -27.612      -3.703
  H      163.730     -26.385      -2.462

 3  4  5  6  7  8  9  10  11  12  13  24  27  28  29  30  32 0
 6-311+G(2d,p)
 ****
 34  35 0
 6-311+G(2d,p)
 ****
 1  2  14  15  16  17  18  19  20  21  22  23  25  26 0
 3-21G
 ****
 31  33  36  37  38  39  40  41  42  43  44  45  46 0
 3-21G
 ****


