%nproc=1
%NoSave
%Mem=1900MB
#P OB98/GEN NMR

erre ene a

0 1
  C      554.739    -145.685     103.456
  O      554.918    -146.597     104.523
  H      553.719    -145.791     103.070
  H      555.447    -145.895     102.645
  H      554.879    -144.659     103.815
  P      556.369    -146.624     105.206
  C      556.804    -148.811     103.910
  O      557.268    -147.498     104.203
  C      557.631    -149.435     102.778
  O      557.371    -148.702     101.555
  C      559.144    -149.387     103.037
  O      559.733    -150.595     102.547
  C      559.616    -148.221     102.190
  O      560.985    -148.322     101.813
  C      558.628    -148.260     101.013
  N      559.590    -145.596      96.768
  C      559.723    -146.906      97.063
  N      559.430    -147.541      98.216
  C      558.902    -146.677      99.112
  C      558.702    -145.317      98.959
  C      559.081    -144.762      97.715
  N      558.972    -143.425      97.413
  N      558.176    -144.762     100.114
  C      558.048    -145.789     100.951
  N      558.485    -146.962     100.387
  O      556.401    -147.063     106.634
  O      556.891    -145.137     104.936
  H      561.531    -148.364     102.626
  H      556.699    -144.853     104.022
  H      560.132    -147.533      96.268
  H      557.661    -145.722     101.960
  H      558.950    -148.965     100.233
  H      559.488    -147.282     102.761
  H      559.391    -149.253     104.088
  H      557.288    -150.456     102.617
  H      555.742    -148.781     103.613
  H      559.246    -143.119      96.500
  H      558.573    -142.800      98.101
  H      556.897    -149.404     104.819
  P      560.039    -151.773     103.597
  C      562.496    -151.991     102.809
  O      561.617    -151.789     103.916
  O      559.436    -153.097     103.270
  O      559.426    -151.182     104.958
  H      559.008    -151.917     105.462
  H      563.510    -151.981     103.152
  H      562.354    -151.209     102.093
  H      562.284    -152.935     102.353

 6  7  8  9  10  11  12  13  14  15  25  28  32  33  34  35 0
 6-311+G(2d,p)
 ****
 36  39  40 0
 6-311+G(2d,p)
 ****
 1  2  3  4  5  16  17  18  19  20  21  22  23  24 0
 3-21G
 ****
 26  27  29  30  31  37  38  41  42  43  44  45  46  47 0
 3-21G
 ****
 48 0
 3-21G
 ****


