%nproc=1
%NoSave
%Mem=1900MB
#P OB98/GEN NMR

erre ene a

0 1
  C     -486.454    -302.669    -226.585
  O     -486.993    -303.627    -225.671
  P     -488.570    -303.592    -225.389
  C     -489.169    -305.795    -226.629
  O     -489.307    -304.386    -226.568
  C     -489.690    -306.330    -227.968
  O     -488.948    -305.780    -229.080
  C     -489.593    -307.843    -228.102
  O     -490.687    -308.494    -227.485
  C     -489.672    -308.005    -229.617
  O     -491.053    -307.919    -230.042
  C     -488.885    -306.791    -230.125
  N     -485.691    -308.574    -233.618
  C     -487.062    -308.385    -233.677
  N     -487.667    -308.706    -234.842
  N     -487.771    -307.916    -232.682
  C     -487.028    -307.621    -231.586
  C     -485.674    -307.775    -231.407
  C     -484.903    -308.304    -232.510
  O     -483.694    -308.516    -232.514
  N     -485.287    -307.376    -230.158
  C     -486.404    -306.963    -229.581
  N     -487.494    -307.105    -230.406
  O     -488.952    -302.066    -225.695
  O     -488.956    -303.985    -223.996
  H     -491.363    -307.034    -229.788
  H     -489.733    -301.807    -225.173
  H     -485.199    -308.945    -234.412
  H     -486.467    -306.555    -228.581
  H     -489.315    -306.361    -231.031
  H     -489.303    -308.972    -229.956
  H     -487.173    -309.020    -235.661
  H     -488.622    -308.214    -227.740
  H     -488.662    -308.535    -234.914
  H     -490.736    -306.027    -228.066
  H     -489.716    -306.267    -225.807
  H     -488.115    -306.059    -226.473
  P     -490.423    -309.262    -226.095
  C     -492.100    -307.679    -224.900
  O     -490.796    -308.212    -224.939
  O     -488.824    -309.345    -226.043
  O     -491.045    -310.604    -225.991
  H     -488.547    -310.155    -225.568
  H     -492.221    -307.122    -223.967
  H     -492.844    -308.481    -224.934
  H     -492.253    -306.996    -225.743
  H     -485.397    -302.814    -226.672
  H     -486.650    -301.681    -226.223
  H     -486.911    -302.795    -227.544

 3  4  5  6  7  8  9  10  11  12  23  26  30  31 0
 6-311+G(2d,p)
 ****
 33  35  36  37  38 0
 6-311+G(2d,p)
 ****
 1  2  13  14  15  16  17  18  19  20  21  22  24  25 0
 3-21G
 ****
 27  28  29  32  34  39  40  41  42  43  44  45  46  47  48  49 0
 3-21G
 ****


