%nproc=1
%NoSave
%Mem=1900MB
#P OB98/GEN NMR

erre ene a

0 1
  C     -173.039     219.690     219.282
  O     -172.678     220.249     218.018
  P     -172.366     221.817     217.876
  C     -174.545     222.305     216.626
  O     -173.124     222.388     216.579
  C     -175.220     222.676     215.299
  O     -174.857     224.019     214.890
  C     -174.895     221.744     214.129
  O     -176.073     221.705     213.319
  C     -173.778     222.493     213.422
  O     -173.587     222.056     212.082
  C     -174.248     223.942     213.588
  N     -173.156     224.901     213.441
  C     -173.374     225.986     212.594
  O     -174.428     226.079     211.963
  N     -172.375     226.917     212.441
  C     -171.227     226.725     213.009
  N     -170.269     227.669     212.801
  C     -170.922     225.547     213.845
  C     -171.927     224.690     214.024
  O     -170.919     222.178     217.958
  O     -173.177     222.479     219.094
  H     -172.752     222.450     211.747
  H     -172.711     223.285     219.390
  H     -169.941     225.414     214.275
  H     -171.805     223.797     214.623
  H     -175.020     224.185     212.845
  H     -172.833     222.336     213.957
  H     -174.601     220.741     214.441
  H     -176.304     222.683     215.476
  H     -170.510     228.449     212.200
  H     -174.906     222.976     217.412
  H     -169.310     227.561     213.099
  H     -174.832     221.289     216.916
  P     -177.203     220.590     213.513
  C     -176.692     219.121     211.482
  O     -177.586     220.055     212.054
  O     -178.367     221.010     214.349
  O     -176.438     219.341     214.173
  H     -177.091     218.743     214.574
  H     -177.159     218.675     210.600
  H     -176.452     218.325     212.196
  H     -175.769     219.629     211.180
  H     -173.206     218.639     219.172
  H     -173.933     220.158     219.637
  H     -172.248     219.854     219.984

 3  4  5  6  7  8  9  10  11  12  13  23  27  28  29  30  32 0
 6-311+G(2d,p)
 ****
 34  35 0
 6-311+G(2d,p)
 ****
 1  2  14  15  16  17  18  19  20  21  22  24  25  26 0
 3-21G
 ****
 31  33  36  37  38  39  40  41  42  43  44  45  46 0
 3-21G
 ****


