%nproc=1
%NoSave
%Mem=1900MB
#P OB98/GEN NMR

erre ene a

0 1
  C       14.691      31.514      -3.604
  O       15.379      32.016      -2.481
  H       15.229      31.815      -4.507
  H       13.684      31.940      -3.638
  H       14.627      30.424      -3.581
  P       15.092      31.366      -1.049
  C       15.478      31.994       1.424
  O       15.786      32.288       0.068
  C       16.192      32.944       2.385
  O       17.618      32.732       2.307
  C       15.946      34.417       2.046
  O       14.776      34.966       2.629
  C       17.201      35.083       2.605
  O       17.032      35.437       3.988
  C       18.274      33.999       2.456
  N       21.553      37.181       0.164
  C       20.705      37.429       1.228
  N       20.714      38.690       1.709
  N       19.921      36.522       1.748
  C       19.951      35.338       1.096
  C       20.732      34.983       0.020
  C       21.653      35.969      -0.503
  O       22.434      35.795      -1.432
  N       20.460      33.703      -0.400
  C       19.458      33.322       0.366
  N       19.168      34.248       1.340
  O       16.022      30.058      -1.041
  O       13.664      30.999      -0.781
  H       17.906      35.690       4.343
  H       15.602      29.362      -0.505
  H       22.154      37.910      -0.175
  H       18.939      32.373       0.289
  H       18.899      33.930       3.355
  H       17.422      36.008       2.068
  H       21.233      39.445       1.294
  H       15.934      34.568       0.963
  H       19.975      38.961       2.361
  H       15.890      32.713       3.414
  H       15.803      30.968       1.602
  H       14.397      32.029       1.585
  P       14.314      36.458       2.291
  C       12.055      37.789       2.400
  O       12.774      36.608       2.675
  O       14.300      36.478       0.692
  O       15.173      37.540       2.857
  H       15.116      36.883       0.345
  H       11.045      37.679       2.737
  H       12.061      37.973       1.346
  H       12.513      38.612       2.908

 6  7  8  9  10  11  12  13  14  15  26  29  33  34 0
 6-311+G(2d,p)
 ****
 36  38  39  40  41 0
 6-311+G(2d,p)
 ****
 1  2  3  4  5  16  17  18  19  20  21  22  23  24  25 0
 3-21G
 ****
 27  28  30  31  32  35  37  42  43  44  45  46  47 0
 3-21G
 ****
 48  49 0
 3-21G
 ****


