%nproc=1
%NoSave
%Mem=1900MB
#P OB98/GEN NMR

erre ene a

0 1
  C       95.104    -185.021    -251.699
  O       96.026    -185.040    -250.601
  P       96.948    -183.789    -250.200
  C       98.938    -182.484    -251.190
  O       98.175    -183.682    -251.230
  C       99.549    -182.153    -252.558
  O      100.516    -183.180    -252.935
  C       98.526    -182.046    -253.705
  O       98.963    -180.971    -254.543
  C       98.687    -183.393    -254.395
  O       98.176    -183.419    -255.716
  C      100.206    -183.561    -254.291
  N      100.711    -184.898    -254.584
  C      101.085    -185.178    -255.904
  O      100.941    -184.352    -256.803
  N      101.604    -186.419    -256.187
  C      101.734    -187.302    -255.249
  N      102.264    -188.505    -255.596
  C      101.334    -187.056    -253.853
  C      100.840    -185.847    -253.594
  O       97.376    -183.794    -248.768
  O       96.066    -182.491    -250.518
  H       96.255    -181.805    -249.848
  H       98.226    -184.338    -256.039
  H      101.465    -187.818    -253.098
  H      100.549    -185.578    -252.584
  H      100.696    -182.832    -254.950
  H       98.151    -184.150    -253.814
  H       97.508    -181.838    -253.365
  H      100.110    -181.215    -252.460
  H      102.534    -188.633    -256.566
  H       99.745    -182.608    -250.464
  H      102.415    -189.262    -254.946
  H       98.295    -181.663    -250.853
  P       97.905    -179.875    -255.041
  C       96.042    -179.785    -256.861
  O       97.157    -180.470    -256.328
  O       98.863    -178.769    -255.702
  O       97.050    -179.251    -253.985
  H       98.415    -177.903    -255.677
  H       96.137    -179.754    -257.950
  H       95.966    -178.763    -256.487
  H       95.130    -180.330    -256.602
  H       94.608    -185.967    -251.765
  H       95.636    -184.833    -252.608
  H       94.380    -184.249    -251.543

 3  4  5  6  7  8  9  10  11  12  13  24  27  28  29  30  32 0
 6-311+G(2d,p)
 ****
 34  35 0
 6-311+G(2d,p)
 ****
 1  2  14  15  16  17  18  19  20  21  22  23  25  26 0
 3-21G
 ****
 31  33  36  37  38  39  40  41  42  43  44  45  46 0
 3-21G
 ****


