%nproc=1
%NoSave
%Mem=1900MB
#P OB98/GEN NMR

erre ene a

0 1
  C     -139.775    -394.671      -2.743
  O     -139.862    -395.506      -1.604
  H     -140.207    -393.698      -2.498
  H     -140.334    -395.110      -3.573
  H     -138.728    -394.531      -3.030
  P     -139.260    -396.985      -1.757
  C     -136.670    -397.030      -1.466
  O     -137.944    -397.025      -0.841
  C     -135.568    -397.281      -0.430
  O     -135.599    -396.207       0.556
  C     -135.734    -398.599       0.347
  O     -134.423    -399.049       0.735
  C     -136.499    -398.139       1.576
  O     -136.479    -399.123       2.583
  C     -135.770    -396.826       1.851
  N     -136.763    -395.693       6.737
  C     -135.943    -396.607       6.175
  N     -135.722    -396.843       4.866
  C     -136.436    -395.997       4.103
  C     -137.306    -395.007       4.532
  C     -137.465    -394.870       5.923
  N     -138.305    -393.945       6.497
  N     -137.862    -394.344       3.453
  C     -137.334    -394.924       2.392
  N     -136.475    -395.932       2.738
  O     -138.687    -396.996      -3.251
  O     -140.225    -398.099      -1.520
  H     -135.621    -399.114       3.062
  H     -139.347    -397.379      -3.858
  H     -135.395    -397.238       6.870
  H     -137.544    -394.664       1.362
  H     -134.773    -396.994       2.271
  H     -137.552    -397.957       1.334
  H     -136.234    -399.383      -0.228
  H     -134.592    -397.229      -0.926
  H     -136.515    -396.057      -1.944
  H     -136.640    -397.813      -2.228
  H     -138.373    -393.921       7.502
  H     -138.848    -393.337       5.903
  P     -133.528    -399.857      -0.327
  C     -132.864    -398.702      -2.582
  O     -132.667    -398.803      -1.177
  O     -134.625    -400.327      -1.398
  O     -132.779    -401.030       0.214
  H     -134.327    -401.153      -1.828
  H     -132.210    -397.955      -2.981
  H     -133.880    -398.431      -2.781
  H     -132.650    -399.645      -3.041

 6  7  8  9  10  11  12  13  14  15  25  28  32  33  34  35 0
 6-311+G(2d,p)
 ****
 36  37  40 0
 6-311+G(2d,p)
 ****
 1  2  3  4  5  16  17  18  19  20  21  22  23  24 0
 3-21G
 ****
 26  27  29  30  31  38  39 41  42  43  44  45  46  47  48 0
 3-21G
 ****


