%nproc=1
%NoSave
%Mem=1900MB
#P OB98/GEN NMR

erre ene a

0 1
  C      224.673     462.223      43.974
  O      225.886     462.718      44.513
  P      227.146     461.714      44.564
  C      227.916     462.593      46.889
  O      228.235     462.410      45.514
  C      229.094     463.237      47.620
  O      230.186     462.304      47.759
  C      229.688     464.440      46.901
  O      228.941     465.627      47.122
  C      231.048     464.538      47.568
  O      230.926     465.192      48.845
  C      231.421     463.059      47.757
  N      235.960     463.550      45.579
  C      235.486     464.096      46.753
  N      236.313     464.928      47.411
  N      234.299     463.834      47.248
  C      233.575     462.984      46.476
  C      233.941     462.381      45.289
  C      235.253     462.683      44.754
  O      235.704     462.281      43.695
  N      232.942     461.580      44.807
  C      231.972     461.692      45.696
  N      232.289     462.566      46.704
  O      227.786     461.854      43.104
  O      226.803     460.299      44.893
  H      231.831     465.247      49.214
  H      228.384     461.103      42.926
  H      236.879     463.784      45.241
  H      231.021     461.174      45.642
  H      231.913     462.882      48.714
  H      231.768     465.119      46.982
  H      237.215     465.218      47.054
  H      229.818     464.244      45.827
  H      235.966     465.390      48.247
  H      228.755     463.521      48.627
  H      227.693     461.619      47.342
  H      227.026     463.220      46.971
  P      228.470     466.441      45.823
  C      229.610     468.563      46.795
  O      228.434     467.978      46.268
  O      226.924     466.046      45.691
  O      229.241     466.129      44.585
  H      226.627     466.115      44.762
  H      229.491     469.652      46.791
  H      230.486     468.302      46.185
  H      229.772     468.225      47.822
  H      223.930     462.992      44.003
  H      224.342     461.385      44.551
  H      224.831     461.918      42.961

 3  4  5  6  7  8  9  10  11  12  23  26  30  31 0
 6-311+G(2d,p)
 ****
 33  35  36  37  38 0
 6-311+G(2d,p)
 ****
 1  2  13  14  15  16  17  18  19  20  21  22  24  25 0
 3-21G
 ****
 27  28  29  32  34  39  40  41  42  43  44  45  46  47  48  49 0
 3-21G
 ****


