%nproc=1
%NoSave
%Mem=1900MB
#P OB98/GEN NMR

erre ene a

0 1
  C       -8.662      54.555     -40.228
  O       -7.272      54.708     -40.435
  H       -8.940      55.075     -39.307
  H       -8.916      53.497     -40.125
  H       -9.217      54.990     -41.063
  P       -6.649      53.922     -41.690
  C       -6.838      54.422     -44.243
  O       -7.404      54.570     -42.950
  C       -7.943      54.184     -45.266
  O       -8.642      52.952     -44.982
  C       -9.018      55.265     -45.285
  O       -8.615      56.432     -45.982
  C      -10.131      54.531     -46.008
  O       -9.837      54.473     -47.416
  C      -10.033      53.130     -45.362
  N      -10.908      52.970     -44.200
  C      -12.283      53.110     -44.424
  O      -12.711      53.365     -45.548
  N      -13.142      52.991     -43.359
  C      -12.675      52.742     -42.175
  N      -13.570      52.648     -41.155
  C      -11.237      52.571     -41.898
  C      -10.421      52.697     -42.941
  O       -7.315      52.470     -41.593
  O       -5.160      53.912     -41.783
  H       -9.001      53.980     -47.510
  H       -7.089      51.944     -42.399
  H      -10.894      52.376     -40.892
  H       -9.350      52.586     -42.812
  H      -10.274      52.346     -46.090
  H      -11.103      55.015     -45.902
  H       -9.360      55.512     -44.274
  H       -7.473      54.072     -46.252
  H      -14.542      52.832     -41.365
  H       -6.150      53.571     -44.224
  H      -13.289      52.638     -40.183
  H       -6.281      55.325     -44.514
  P       -9.400      57.797     -45.666
  C       -9.705      59.137     -43.463
  O       -9.611      57.859     -44.077
  O      -10.870      57.503     -46.220
  O       -8.804      59.025     -46.281
  H      -11.251      58.294     -46.647
  H       -9.843      59.017     -42.409
  H      -10.537      59.670     -43.874
  H       -8.805      59.687     -43.644

 6  7  8  9  10  11  12  13  14  15  16  26  30  31  32  33  35 0
 6-311+G(2d,p)
 ****
 37  38 0
 6-311+G(2d,p)
 ****
 1  2  3  4  5  17  18  19  20  21  22  23  24  25 0
 3-21G
 ****
 27  28  29  34  36  39  40  41  42  43  44  45  46 0
 3-21G
 ****


