%nproc=1
%NoSave
%Mem=1900MB
#P OB98/GEN NMR

erre ene a

0 1
  C       64.070    -546.863    -354.672
  O       63.734    -547.529    -353.475
  H       64.291    -547.608    -355.440
  H       64.964    -546.251    -354.518
  H       63.246    -546.233    -355.020
  P       63.097    -546.689    -352.265
  C       65.211    -546.044    -350.923
  O       64.080    -546.901    -351.012
  C       66.477    -546.869    -350.690
  O       66.253    -547.731    -349.537
  C       66.853    -547.772    -351.880
  O       68.281    -547.862    -351.951
  C       66.268    -549.099    -351.453
  O       66.850    -550.183    -352.144
  C       66.557    -549.080    -349.950
  N       65.769    -550.080    -349.240
  C       66.301    -551.362    -349.170
  O       67.378    -551.685    -349.679
  N       65.528    -552.305    -348.554
  C       64.244    -552.116    -348.108
  O       63.560    -553.011    -347.638
  C       63.706    -550.751    -348.260
  C       64.486    -549.809    -348.807
  O       61.654    -546.945    -351.978
  O       63.378    -545.160    -352.654
  H       66.935    -549.970    -353.090
  H       62.766    -544.567    -352.182
  H       65.903    -553.236    -348.482
  H       62.692    -550.568    -347.936
  H       64.119    -548.799    -348.945
  H       67.621    -549.255    -349.758
  H       65.192    -549.124    -351.649
  H       66.454    -547.407    -352.836
  H       67.300    -546.195    -350.428
  H       65.048    -545.358    -350.083
  H       65.303    -545.463    -351.847
  P       69.142    -546.936    -352.948
  C       69.550    -548.868    -354.587
  O       70.150    -547.829    -353.821
  O       69.787    -545.759    -352.282
  O       68.076    -546.421    -354.030
  H       68.198    -545.465    -354.173
  H       70.308    -549.397    -355.126
  H       68.851    -548.444    -355.277
  H       69.040    -549.544    -353.933

 6  7  8  9  10  11  12  13  14  15  16  26  31  32  33  34  35 0
 6-311+G(2d,p)
 ****
 36  37 0
 6-311+G(2d,p)
 ****
 1  2  3  4  5  17  18  19  20  21  22  23  24  25 0
 3-21G
 ****
 27  28  29  30  38  39  40  41  42  43  44  45 0
 3-21G
 ****


