%nproc=1
%NoSave
%Mem=1900MB
#P OB98/GEN NMR

erre ene a

0 1
  C     -899.381    -137.005    1673.022
  O     -898.411    -137.934    1672.516
  P     -897.391    -137.430    1671.398
  C     -895.031    -137.460    1672.507
  O     -896.171    -136.694    1672.134
  C     -895.051    -137.727    1674.021
  O     -896.121    -138.618    1674.397
  C     -893.771    -138.379    1674.531
  O     -892.761    -137.413    1674.768
  C     -894.251    -138.962    1675.858
  O     -894.301    -137.918    1676.860
  C     -895.661    -139.438    1675.506
  N     -896.311    -144.123    1677.285
  C     -896.341    -142.908    1677.940
  N     -896.591    -142.950    1679.263
  N     -896.151    -141.757    1677.344
  C     -895.941    -141.866    1676.023
  C     -895.891    -143.002    1675.255
  C     -896.081    -144.280    1675.927
  O     -896.051    -145.383    1675.394
  N     -895.641    -142.718    1673.948
  C     -895.571    -141.404    1673.915
  N     -895.721    -140.835    1675.140
  O     -898.181    -136.212    1670.726
  O     -897.011    -138.476    1670.400
  H     -895.111    -137.400    1676.670
  H     -897.911    -136.114    1669.789
  H     -896.461    -144.976    1677.791
  H     -895.401    -140.818    1673.004
  H     -896.381    -139.280    1676.325
  H     -893.571    -139.731    1676.232
  H     -896.791    -143.796    1679.777
  H     -893.441    -139.175    1673.855
  H     -896.641    -142.073    1679.759
  H     -895.201    -136.764    1674.529
  H     -894.121    -136.926    1672.227
  H     -895.031    -138.389    1671.929
  P     -891.321    -137.640    1674.068
  C     -890.631    -135.161    1673.622
  O     -891.111    -136.389    1673.085
  O     -891.611    -138.861    1673.073
  O     -890.221    -137.928    1675.007
  H     -890.801    -139.404    1672.978
  H     -890.411    -134.488    1672.801
  H     -889.711    -135.343    1674.201
  H     -891.401    -134.704    1674.260
  H     -899.987    -137.489    1673.759
  H     -900.000    -136.663    1672.219
  H     -898.878    -136.171    1673.465

 3  4  5  6  7  8  9  10  11  12  23  26  30  31 0
 6-311+G(2d,p)
 ****
 33  35  36  37  38 0
 6-311+G(2d,p)
 ****
 1  2  13  14  15  16  17  18  19  20  21  22  24  25 0
 3-21G
 ****
 27  28  29  32  34  39  40  41  42  43  44  45  46  47  48  49 0
 3-21G
 ****


