%nproc=1
%NoSave
%Mem=1900MB
#P OB98/GEN NMR

erre ene a

0 1
  C     -379.737     -99.020     291.021
  O     -379.736     -97.719     290.464
  P     -379.303     -97.485     288.939
  C     -376.825     -97.062     289.547
  O     -377.757     -97.915     288.862
  C     -375.385     -97.500     289.272
  O     -375.134     -98.807     289.854
  C     -375.041     -97.638     287.801
  O     -374.832     -96.368     287.214
  C     -373.801     -98.524     287.860
  O     -372.630     -97.749     288.143
  C     -374.135     -99.460     289.054
  N     -374.575    -100.781     288.611
  C     -373.594    -101.601     288.058
  O     -372.436    -101.198     287.940
  N     -373.946    -102.861     287.611
  C     -375.186    -103.241     287.693
  N     -375.484    -104.492     287.226
  C     -376.263    -102.396     288.238
  C     -375.895    -101.180     288.670
  O     -379.623     -96.140     288.380
  O     -380.046     -98.684     288.159
  H     -371.907     -98.396     288.299
  H     -381.016     -98.524     288.080
  H     -377.286    -102.751     288.269
  H     -376.615    -100.489     289.079
  H     -373.256     -99.589     289.696
  H     -373.623     -99.063     286.922
  H     -375.849     -98.182     287.278
  H     -374.712     -96.774     289.755
  H     -374.727    -105.022     286.839
  H     -377.034     -97.124     290.617
  H     -376.415    -104.872     287.206
  H     -376.986     -96.025     289.216
  P     -375.330     -96.079     285.717
  C     -373.072     -96.888     284.795
  O     -374.486     -97.021     284.724
  O     -375.395     -94.644     285.327
  O     -376.792     -96.748     285.672
  H     -377.411     -96.137     285.220
  H     -372.609     -97.770     284.349
  H     -372.735     -96.793     285.847
  H     -372.751     -96.006     284.241
  H     -380.054     -98.971     292.042
  H     -378.750     -99.429     290.973
  H     -380.409     -99.644     290.469

 3  4  5  6  7  8  9  10  11  12  13  23  27  28  29  30  32 0
 6-311+G(2d,p)
 ****
 34  35 0
 6-311+G(2d,p)
 ****
 1  2  14  15  16  17  18  19  20  21  22  24  25  26 0
 3-21G
 ****
 31  33  36  37  38  39  40  41  42  43  44  45  46 0
 3-21G
 ****


