%nproc=1
%NoSave
%Mem=1900MB
#P OB98/GEN NMR

erre ene a

0 1
  C     -524.400     529.804    -197.595
  O     -524.988     530.175    -196.367
  H     -525.103     529.172    -198.146
  H     -523.482     529.239    -197.424
  H     -524.182     530.697    -198.190
  P     -524.079     531.024    -195.353
  C     -525.635     532.912    -194.478
  O     -524.617     532.536    -195.396
  C     -525.866     534.417    -194.573
  O     -526.232     534.768    -195.932
  C     -527.012     534.923    -193.710
  O     -526.650     535.075    -192.346
  C     -527.310     536.257    -194.373
  O     -526.446     537.298    -193.892
  C     -527.044     535.961    -195.858
  N     -528.282     535.823    -196.612
  C     -528.656     536.932    -197.375
  O     -528.004     537.970    -197.413
  N     -529.846     536.813    -198.047
  C     -530.690     535.752    -198.003
  O     -531.768     535.738    -198.590
  C     -530.253     534.616    -197.177
  C     -529.090     534.698    -196.524
  O     -522.666     531.095    -196.104
  O     -523.955     530.442    -193.980
  H     -522.028     530.506    -195.662
  H     -526.560     537.312    -192.916
  H     -530.136     537.611    -198.603
  H     -530.904     533.748    -197.118
  H     -528.748     533.887    -195.905
  H     -526.457     536.768    -196.310
  H     -528.331     536.578    -194.180
  H     -527.885     534.270    -193.819
  H     -524.930     534.937    -194.323
  H     -525.322     532.671    -193.460
  H     -526.546     532.358    -194.703
  P     -527.498     534.246    -191.253
  C     -525.604     532.823    -190.103
  O     -526.687     532.880    -191.023
  O     -528.763     533.821    -192.129
  O     -527.801     535.036    -190.027
  H     -528.548     533.753    -193.084
  H     -525.197     531.834    -190.093
  H     -525.954     533.075    -189.124
  H     -524.846     533.518    -190.400

 6  7  8  9  10  11  12  13  14  15  16  27  31  32  33  34  35 0
 6-311+G(2d,p)
 ****
 36  37 0
 6-311+G(2d,p)
 ****
 1  2  3  4  5  17  18  19  20  21  22  23  24  25 0
 3-21G
 ****
 26  28  29  30  38  39  40  41  42  43  44  45 0
 3-21G
 ****


