%nproc=1
%NoSave
%Mem=1900MB
#P OB98/GEN NMR

erre ene a

0 1
  C       65.675      95.270    -340.306
  O       65.244      96.412    -339.597
  H       66.268      94.641    -339.635
  H       66.304      95.568    -341.150
  H       64.818      94.692    -340.666
  P       64.224      97.404    -340.340
  C       64.632      99.575    -341.704
  O       65.098      98.276    -341.368
  C       65.583     100.240    -342.704
  O       66.918     100.278    -342.127
  C       65.672      99.510    -344.047
  O       65.773     100.480    -345.092
  C       66.979      98.734    -343.950
  O       67.543      98.450    -345.230
  C       67.821      99.660    -343.064
  N       68.888      98.931    -342.385
  C       69.814      98.267    -343.200
  O       69.703      98.311    -344.428
  N       70.806      97.524    -342.607
  C       70.819      97.379    -341.321
  N       71.810      96.608    -340.794
  C       69.824      98.006    -340.421
  C       68.901      98.764    -341.019
  O       63.835      98.459    -339.203
  O       63.026      96.750    -340.948
  H       68.430      98.049    -345.093
  H       62.921      98.784    -339.318
  H       69.861      97.835    -339.354
  H       68.123      99.255    -340.444
  H       68.275     100.463    -343.665
  H       66.799      97.782    -343.441
  H       64.818      98.854    -344.240
  H       65.267     101.280    -342.843
  H       72.462      96.185    -341.443
  H       64.590     100.187    -340.796
  H       71.891      96.392    -339.812
  H       63.624      99.504    -342.127
  P       64.554     100.544    -346.135
  C       63.850      99.318    -348.315
  O       64.799      99.427    -347.261
  O       64.805     101.926    -346.910
  O       63.207     100.512    -345.489
  H       64.137     102.584    -346.641
  H       64.146      98.536    -348.982
  H       63.803     100.244    -348.849
  H       62.887      99.092    -347.906

 6  7  8  9  10  11  12  13  14  15  16  26  30  31  32  33  35 0
 6-311+G(2d,p)
 ****
 37  38 0
 6-311+G(2d,p)
 ****
 1  2  3  4  5  17  18  19  20  21  22  23  24  25 0
 3-21G
 ****
 27  28  29  34  36  39  40  41  42  43  44  45  46 0
 3-21G
 ****


