%nproc=1
%NoSave
%Mem=1900MB
#P OB98/GEN NMR

erre ene a

0 1
  C       44.231     -99.967     308.454
  O       45.578     -99.921     308.885
  H       44.065     -99.245     307.646
  H       44.016    -100.967     308.069
  H       43.552     -99.753     309.286
  P       46.098     -98.527     309.491
  C       47.361     -97.886     311.670
  O       46.998     -98.914     310.772
  C       47.798     -98.497     313.002
  O       46.648     -98.985     313.729
  C       48.741     -99.689     312.863
  O       50.090     -99.299     312.637
  C       48.571    -100.337     314.226
  O       49.330     -99.605     315.210
  C       47.068    -100.171     314.473
  N       45.775    -105.007     315.496
  C       46.599    -104.151     316.124
  N       46.904    -102.887     315.774
  C       46.225    -102.518     314.666
  C       45.352    -103.284     313.928
  C       45.126    -104.598     314.384
  N       44.287    -105.491     313.746
  N       44.886    -102.589     312.830
  C       45.441    -101.400     312.934
  N       46.281    -101.304     314.030
  O       44.783     -97.889     310.152
  O       46.764     -97.606     308.523
  H       48.994     -98.693     315.208
  H       44.901     -96.928     310.260
  H       47.102    -104.539     317.005
  H       45.279    -100.573     312.254
  H       46.825     -99.998     315.531
  H       48.929    -101.372     314.251
  H       48.387    -100.392     312.090
  H       48.274     -97.705     313.601
  H       46.497     -97.232     311.845
  H       44.337    -106.455     314.048
  H       43.919    -105.235     312.842
  H       48.176     -97.293     311.236
  P       50.919    -100.102     311.529
  C       52.984     -99.553     310.032
  O       51.987     -99.072     310.934
  O       49.860    -100.278     310.326
  O       51.473    -101.416     311.991
  H       50.072    -101.058     309.788
  H       53.613     -98.742     309.730
  H       52.511     -99.977     309.171
  H       53.575    -100.301     310.519

 6  7  8  9  10  11  12  13  14  15  25  28  32  33  34  35 0
 6-311+G(2d,p)
 ****
 36  39  40 0
 6-311+G(2d,p)
 ****
 1  2  3  4  5  16  17  18  19  20  21  22  23  24 0
 3-21G
 ****
 26  27  29  30  31  37  38  41  42  43  44  45  46  47 0
 3-21G
 ****
 48 0
 3-21G
 ****


