%nproc=1
%NoSave
%Mem=1900MB
#P OB98/GEN NMR

erre ene a

0 1
  C     -168.457     114.051     104.046
  O     -167.239     113.369     104.361
  P     -167.257     112.218     105.476
  C     -167.475     110.004     104.170
  O     -166.598     110.888     104.857
  C     -166.743     109.292     103.023
  O     -166.113     110.265     102.135
  C     -165.633     108.357     103.524
  O     -165.504     107.219     102.653
  C     -164.383     109.201     103.367
  O     -163.205     108.396     103.318
  C     -164.706     109.952     102.078
  N     -160.947     112.200      99.412
  C     -161.559     111.000      99.271
  N     -162.566     110.479     100.003
  C     -162.954     111.341     100.962
  C     -162.432     112.602     101.220
  C     -161.376     113.028     100.396
  N     -160.736     114.236     100.560
  N     -163.082     113.191     102.285
  C     -163.944     112.281     102.696
  N     -163.928     111.162     101.907
  O     -168.563     112.010     106.171
  O     -166.131     112.707     106.510
  H     -163.224     107.897     102.481
  H     -166.450     112.561     107.422
  H     -161.183     110.375      98.465
  H     -164.589     112.379     103.559
  H     -164.544     109.327     101.191
  H     -164.292     109.893     104.217
  H     -165.766     108.000     104.549
  H     -167.477     108.740     102.422
  H     -168.329     110.562     103.779
  H     -159.912     114.408      99.999
  H     -160.945     114.794     101.377
  H     -167.891     109.284     104.885
  P     -165.759     105.778     103.331
  C     -168.328     105.805     103.820
  O     -167.274     105.391     102.980
  O     -165.379     105.726     104.777
  O     -164.875     104.816     102.403
  H     -165.031     104.920     101.448
  H     -169.279     105.555     103.341
  H     -168.296     106.887     103.984
  H     -168.269     105.284     104.782
  H     -168.270     114.783     103.288
  H     -168.832     114.535     104.924
  H     -169.179     113.346     103.691

 3  4  5  6  7  8  9  10  11  12  22  25  29  30  31  32 0
 6-311+G(2d,p)
 ****
 33  36  37 0
 6-311+G(2d,p)
 ****
 1  2  13  14  15  16  17  18  19  20  21  23  24  26 0
 3-21G
 ****
 27  28  34  35  38  39  40  41  42  43  44  45  46  47  48 0
 3-21G
 ****


