%nproc=1
%NoSave
%Mem=1900MB
#P OB98/GEN NMR

erre ene a

0 1
  C     -294.747     174.228      16.075
  O     -295.213     175.473      15.575
  P     -295.465     176.654      16.631
  C     -297.397     177.344      18.226
  O     -296.889     176.376      17.317
  C     -298.473     176.733      19.129
  O     -297.833     175.849      20.090
  C     -299.297     177.759      19.926
  O     -300.627     177.234      20.025
  C     -298.596     177.748      21.274
  O     -299.363     178.314      22.325
  C     -298.276     176.265      21.404
  N     -297.431     175.071      26.305
  C     -298.573     175.203      25.596
  N     -298.721     175.517      24.289
  C     -297.521     175.688      23.705
  C     -296.274     175.603      24.303
  C     -296.252     175.275      25.670
  N     -295.082     175.152      26.393
  N     -295.270     175.872      23.392
  C     -295.901     176.117      22.260
  N     -297.262     175.993      22.395
  O     -295.746     177.921      15.696
  O     -294.336     176.900      17.587
  H     -300.237     177.875      22.371
  H     -295.344     178.731      16.065
  H     -299.492     175.036      26.146
  H     -295.429     176.394      21.327
  H     -299.164     175.675      21.663
  H     -297.673     178.340      21.199
  H     -299.337     178.745      19.451
  H     -299.135     176.116      18.507
  H     -297.849     178.170      17.663
  H     -295.182     175.115      27.400
  H     -294.236     175.508      25.969
  H     -296.572     177.754      18.820
  P     -301.853     178.255      20.216
  C     -302.651     179.702      22.179
  O     -301.743     178.701      21.755
  O     -303.088     177.232      20.261
  O     -301.968     179.331      19.190
  H     -302.932     176.517      20.902
  H     -302.536     179.840      23.261
  H     -303.680     179.393      21.969
  H     -302.428     180.647      21.682
  H     -294.625     173.541      15.264
  H     -295.458     173.835      16.771
  H     -293.807     174.370      16.566

 3  4  5  6  7  8  9  10  11  12  22  25  29  30  31  32 0
 6-311+G(2d,p)
 ****
 33  36  37 0
 6-311+G(2d,p)
 ****
 1  2  13  14  15  16  17  18  19  20  21  23  24  26 0
 3-21G
 ****
 27  28  34  35  38  39  40  41  42  43  44  45  46  47  48 0
 3-21G
 ****


