%nproc=1
%NoSave
%Mem=1900MB
#P OB98/GEN NMR

erre ene a

0 1
  C     -241.629     152.308     -95.283
  O     -240.240     152.057     -95.148
  P     -239.600     150.635     -95.541
  C     -237.257     151.705     -95.783
  O     -238.055     150.737     -95.124
  C     -235.859     151.755     -95.162
  O     -235.977     152.213     -93.789
  C     -235.131     150.405     -95.139
  O     -233.737     150.671     -95.333
  C     -235.388     149.905     -93.729
  O     -234.437     148.940     -93.309
  C     -235.354     151.222     -92.947
  N     -236.035     151.128     -91.658
  C     -235.253     150.872     -90.530
  O     -234.038     150.711     -90.625
  N     -235.870     150.806     -89.307
  C     -237.163     150.899     -89.226
  N     -237.721     150.884     -87.987
  C     -238.032     151.058     -90.407
  C     -237.406     151.185     -91.573
  O     -239.840     150.211     -96.950
  O     -240.176     149.627     -94.446
  H     -233.564     149.375     -93.248
  H     -241.066     149.268     -94.683
  H     -239.108     151.102     -90.293
  H     -237.962     151.333     -92.487
  H     -234.317     151.546     -92.796
  H     -236.380     149.442     -93.682
  H     -235.481     149.721     -95.917
  H     -235.265     152.499     -95.706
  H     -237.083     150.948     -87.199
  H     -237.730     152.682     -95.661
  H     -238.645     151.270     -87.825
  H     -237.205     151.478     -96.852
  P     -232.925     149.753     -96.373
  C     -231.512     151.826     -97.034
  O     -231.520     150.463     -96.668
  O     -233.730     150.026     -97.739
  O     -232.897     148.288     -96.086
  H     -233.613     149.261     -98.333
  H     -230.475     152.139     -97.188
  H     -231.944     152.440     -96.238
  H     -232.066     151.978     -97.963
  H     -241.843     153.308     -94.969
  H     -242.177     151.618     -94.675
  H     -241.915     152.187     -96.307

 3  4  5  6  7  8  9  10  11  12  13  23  27  28  29  30  32 0
 6-311+G(2d,p)
 ****
 34  35 0
 6-311+G(2d,p)
 ****
 1  2  14  15  16  17  18  19  20  21  22  24  25  26 0
 3-21G
 ****
 31  33  36  37  38  39  40  41  42  43  44  45  46 0
 3-21G
 ****


