%nproc=1
%NoSave
%Mem=1900MB
#P OB98/GEN NMR

erre ene a

0 1
  C       30.245      25.091      -2.729
  O       29.067      24.640      -2.102
  P       28.373      25.387      -0.878
  C       27.551      27.821      -0.393
  O       28.369      26.962      -1.177
  C       28.345      29.039       0.100
  O       29.391      28.577       0.993
  C       29.038      29.769      -1.062
  O       28.977      31.186      -0.976
  C       30.421      29.130      -1.087
  O       31.397      29.914      -1.756
  C       30.670      28.874       0.395
  N       35.218      27.561       2.239
  C       34.552      28.765       2.346
  N       35.265      29.795       2.848
  N       33.315      28.943       1.960
  C       32.769      27.853       1.374
  C       33.331      26.608       1.213
  C       34.685      26.415       1.673
  O       35.354      25.398       1.496
  N       32.508      25.765       0.513
  C       31.462      26.508       0.218
  N       31.589      27.794       0.691
  O       28.759      24.933       0.491
  O       26.820      25.001      -1.100
  H       32.233      29.414      -1.746
  H       26.415      24.919      -0.214
  H       36.201      27.508       2.481
  H       30.603      26.180      -0.356
  H       31.074      29.758       0.892
  H       30.338      28.188      -1.639
  H       36.259      29.725       3.015
  H       28.531      29.552      -2.008
  H       34.890      30.729       2.706
  H       27.682      29.695       0.673
  H       27.208      27.225       0.460
  H       26.671      28.136      -0.958
  P       29.024      32.263      -2.153
  C       27.539      32.870      -4.153
  O       27.957      31.846      -3.271
  O       30.422      32.015      -2.888
  O       28.924      33.684      -1.702
  H       30.817      32.872      -3.137
  H       26.633      32.540      -4.669
  H       28.320      33.057      -4.894
  H       27.321      33.792      -3.605
  H       30.507      24.420      -3.520
  H       31.039      25.126      -2.013
  H       30.083      26.070      -3.131

 3  4  5  6  7  8  9  10  11  12  23  26  30  31 0
 6-311+G(2d,p)
 ****
 33  35  36  37  38 0
 6-311+G(2d,p)
 ****
 1  2  13  14  15  16  17  18  19  20  21  22  24  25 0
 3-21G
 ****
 27  28  29  32  34  39  40  41  42  43  44  45  46  47  48  49 0
 3-21G
 ****


