%nproc=1
%NoSave
%Mem=1900MB
#P OB98/GEN NMR

erre ene a

0 1
  C     -178.627    -552.236    -641.075
  O     -178.474    -550.850    -641.389
  P     -178.501    -550.387    -642.931
  C     -176.179    -549.324    -643.170
  O     -177.580    -549.085    -643.099
  C     -175.354    -548.140    -642.636
  O     -175.332    -547.050    -643.618
  C     -175.871    -547.543    -641.320
  O     -174.719    -547.129    -640.564
  C     -176.675    -546.342    -641.786
  O     -176.900    -545.398    -640.745
  C     -175.787    -545.856    -642.938
  N     -176.503    -544.966    -643.849
  C     -176.471    -543.599    -643.565
  O     -175.955    -543.197    -642.518
  N     -177.063    -542.736    -644.446
  C     -177.737    -543.206    -645.452
  N     -178.297    -542.300    -646.320
  C     -177.946    -544.647    -645.688
  C     -177.277    -545.462    -644.875
  O     -179.868    -550.280    -643.546
  O     -177.640    -551.530    -643.661
  H     -177.232    -544.558    -641.130
  H     -178.010    -551.690    -644.554
  H     -178.595    -544.993    -646.484
  H     -177.356    -546.534    -644.956
  H     -174.898    -545.335    -642.557
  H     -177.655    -546.675    -642.158
  H     -176.451    -548.254    -640.722
  H     -174.308    -548.469    -642.502
  H     -178.175    -541.322    -646.140
  H     -175.896    -549.515    -644.207
  H     -178.796    -542.591    -647.142
  H     -175.933    -550.246    -642.613
  P     -173.881    -548.229    -639.749
  C     -174.977    -548.075    -637.399
  O     -173.859    -547.786    -638.215
  O     -172.370    -547.907    -640.215
  O     -174.203    -549.654    -640.056
  H     -171.836    -548.716    -640.114
  H     -174.681    -547.962    -636.343
  H     -175.340    -549.088    -637.554
  H     -175.782    -547.359    -637.606
  H     -178.586    -552.368    -640.014
  H     -177.839    -552.795    -641.535
  H     -179.571    -552.583    -641.441

 3  4  5  6  7  8  9  10  11  12  13  23  27  28  29  30  32 0
 6-311+G(2d,p)
 ****
 34  35 0
 6-311+G(2d,p)
 ****
 1  2  14  15  16  17  18  19  20  21  22  24  25  26 0
 3-21G
 ****
 31  33  36  37  38  39  40  41  42  43  44  45  46 0
 3-21G
 ****


