%nproc=1
%NoSave
%Mem=1900MB
#P OB98/GEN NMR

erre ene a

0 1
  C     -405.355    -953.981     537.361
  O     -404.556    -953.800     536.176
  P     -403.145    -954.561     536.119
  C     -402.086    -953.137     538.009
  O     -402.427    -954.432     537.546
  C     -401.750    -953.146     539.508
  O     -400.575    -953.956     539.770
  C     -401.460    -951.747     540.070
  O     -401.844    -951.729     541.452
  C     -399.934    -951.673     540.002
  O     -399.421    -950.658     540.862
  C     -399.577    -953.115     540.381
  N     -394.649    -952.380     541.162
  C     -395.747    -951.808     541.780
  N     -395.489    -950.929     542.774
  N     -396.981    -952.057     541.446
  C     -397.087    -952.983     540.453
  C     -396.081    -953.620     539.771
  C     -394.715    -953.301     540.127
  O     -393.704    -953.771     539.604
  N     -396.585    -954.471     538.814
  C     -397.893    -954.348     538.936
  N     -398.250    -953.481     539.935
  O     -402.268    -953.610     535.170
  O     -403.229    -955.941     535.559
  H     -398.447    -950.771     540.892
  H     -402.138    -954.029     534.309
  H     -393.716    -952.133     541.446
  H     -398.631    -954.844     538.315
  H     -399.611    -953.276     541.462
  H     -399.627    -951.449     538.969
  H     -394.554    -950.720     543.109
  H     -401.939    -950.924     539.548
  H     -396.271    -950.524     543.272
  H     -402.587    -953.599     540.051
  H     -402.921    -952.440     537.825
  H     -401.252    -952.753     537.413
  P     -403.098    -950.805     541.835
  C     -401.872    -948.527     541.634
  O     -402.861    -949.400     541.117
  O     -402.865    -950.480     543.390
  O     -404.429    -951.437     541.598
  H     -403.711    -950.272     543.827
  H     -400.982    -948.577     540.998
  H     -401.597    -948.792     542.658
  H     -402.270    -947.510     541.632
  H     -406.263    -953.422     537.268
  H     -404.810    -953.636     538.215
  H     -405.586    -955.019     537.481

 3  4  5  6  7  8  9  10  11  12  23  26  30  31 0
 6-311+G(2d,p)
 ****
 33  35  36  37  38 0
 6-311+G(2d,p)
 ****
 1  2  13  14  15  16  17  18  19  20  21  22  24  25 0
 3-21G
 ****
 27  28  29  32  34  39  40  41  42  43  44  45  46  47  48  49 0
 3-21G
 ****


