%nproc=1
%NoSave
%Mem=1900MB
#P OB98/GEN NMR

erre ene a

0 1
  C     -892.170     189.360      25.316
  O     -893.010     189.053      24.227
  H     -891.700     190.335      25.142
  H     -891.380     188.606      25.403
  H     -892.740     189.405      26.248
  P     -893.820     187.661      24.303
  C     -894.640     188.444      26.637
  O     -894.090     187.387      25.854
  C     -896.040     188.056      27.132
  O     -896.000     186.732      27.719
  C     -896.580     188.969      28.222
  O     -897.090     190.188      27.697
  C     -897.650     188.084      28.835
  O     -898.870     188.137      28.090
  C     -897.030     186.681      28.729
  N     -898.150     185.455      33.557
  C     -898.930     185.780      32.496
  N     -898.550     186.081      31.242
  C     -897.220     185.991      31.119
  C     -896.290     185.668      32.095
  C     -896.810     185.382      33.372
  N     -896.010     185.086      34.452
  N     -895.010     185.733      31.595
  C     -895.160     186.066      30.332
  N     -896.470     186.243      29.990
  O     -892.690     186.588      23.920
  O     -895.000     187.566      23.407
  H     -898.760     187.529      27.333
  H     -892.790     186.323      22.988
  H     -900.000     185.809      32.705
  H     -894.340     186.213      29.628
  H     -897.760     185.923      28.417
  H     -897.870     188.382      29.862
  H     -895.800     189.164      28.971
  H     -896.710     188.022      26.267
  H     -894.710     189.352      26.028
  H     -893.970     188.641      27.486
  H     -896.440     184.959      35.356
  H     -895.010     185.147      34.357
  P     -896.050     191.413      27.531
  C     -895.980     191.227      24.921
  O     -895.270     191.171      26.152
  O     -894.950     191.134      28.648
  O     -896.670     192.757      27.677
  H     -894.630     191.979      29.019
  H     -895.305     191.043      24.111
  H     -896.419     192.196      24.806
  H     -896.750     190.484      24.919

 6  7  8  9  10  11  12  13  14  15  25  28  32  33  34  35 0
 6-311+G(2d,p)
 ****
 36  37  40 0
 6-311+G(2d,p)
 ****
 1  2  3  4  5  16  17  18  19  20  21  22  23  24 0
 3-21G
 ****
 26  27  29  30  31  38  39 41  42  43  44  45  46  47  48 0
 3-21G
 ****


