%nproc=1
%NoSave
%Mem=1900MB
#P OB98/GEN NMR

erre ene a

0 1
  C      425.861    -217.338    -135.762
  O      425.905    -218.574    -136.436
  H      426.288    -217.471    -134.765
  H      424.820    -217.011    -135.665
  H      426.438    -216.574    -136.289
  P      425.788    -218.587    -138.036
  C      428.122    -219.139    -138.999
  O      426.845    -219.649    -138.612
  C      429.247    -220.115    -138.644
  O      429.190    -220.421    -137.226
  C      429.130    -221.447    -139.393
  O      429.744    -221.454    -140.676
  C      429.838    -222.407    -138.438
  O      431.250    -222.452    -138.699
  C      429.566    -221.798    -137.059
  N      428.426    -225.072    -133.290
  C      429.673    -224.749    -133.820
  N      430.720    -225.419    -133.303
  N      429.839    -223.877    -134.769
  C      428.681    -223.369    -135.264
  C      427.402    -223.618    -134.833
  C      427.221    -224.529    -133.717
  O      426.152    -224.833    -133.208
  N      426.471    -222.947    -135.586
  C      427.189    -222.358    -136.530
  N      428.536    -222.515    -136.327
  O      426.438    -217.183    -138.466
  O      424.394    -218.703    -138.577
  H      431.387    -222.940    -139.536
  H      426.015    -216.860    -139.278
  H      428.358    -225.736    -132.534
  H      426.786    -221.767    -137.349
  H      430.469    -221.812    -136.428
  H      429.463    -223.425    -138.561
  H      430.642    -226.164    -132.626
  H      428.084    -221.755    -139.470
  H      431.617    -225.357    -133.787
  H      430.212    -219.630    -138.827
  H      428.257    -218.198    -138.462
  H      428.129    -218.921    -140.066
  P      429.414    -222.608    -141.731
  C      428.557    -221.031    -143.649
  O      429.493    -221.986    -143.196
  O      427.853    -222.856    -141.520
  O      430.209    -223.870    -141.579
  H      427.695    -223.643    -140.944
  H      428.793    -220.749    -144.654
  H      428.594    -220.168    -143.018
  H      427.574    -221.453    -143.619

 6  7  8  9  10  11  12  13  14  15  26  29  33  34 0
 6-311+G(2d,p)
 ****
 36  38  39  40  41 0
 6-311+G(2d,p)
 ****
 1  2  3  4  5  16  17  18  19  20  21  22  23  24  25 0
 3-21G
 ****
 27  28  30  31  32  35  37  42  43  44  45  46  47 0
 3-21G
 ****
 48  49 0
 3-21G
 ****


