%nproc=1
%NoSave
%Mem=1900MB
#P OB98/GEN NMR

erre ene a

0 1
  C     -194.855     525.461     -60.258
  O     -194.411     524.201     -59.769
  P     -195.499     523.041     -59.582
  C     -193.777     521.201     -60.165
  O     -194.670     521.723     -59.204
  C     -192.997     520.014     -59.609
  O     -193.904     519.048     -59.035
  C     -192.166     519.255     -60.625
  O     -190.923     519.869     -60.884
  C     -191.954     517.927     -59.895
  O     -190.911     518.071     -58.924
  C     -193.306     517.738     -59.202
  N     -194.623     512.887     -60.166
  C     -193.621     513.413     -59.436
  N     -193.325     514.715     -59.239
  C     -194.178     515.511     -59.919
  C     -195.229     515.101     -60.728
  C     -195.455     513.729     -60.833
  N     -196.498     513.192     -61.556
  N     -195.871     516.206     -61.245
  C     -195.236     517.249     -60.762
  N     -194.207     516.876     -59.940
  O     -195.989     522.760     -61.081
  O     -196.642     523.391     -58.679
  H     -190.063     518.076     -59.413
  H     -196.882     522.357     -61.073
  H     -192.966     512.703     -58.948
  H     -195.495     518.282     -60.971
  H     -193.191     517.305     -58.189
  H     -191.662     517.115     -60.561
  H     -192.742     519.071     -61.552
  H     -192.347     520.395     -58.789
  H     -193.077     521.984     -60.481
  H     -196.699     512.206     -61.438
  H     -197.227     513.814     -61.889
  H     -194.354     520.887     -61.058
  P     -190.190     519.466     -62.266
  C     -189.035     521.801     -62.066
  O     -188.900     520.419     -62.342
  O     -191.172     520.066     -63.379
  O     -189.955     518.013     -62.430
  H     -191.072     519.576     -64.219
  H     -188.057     522.223     -61.854
  H     -189.677     521.965     -61.202
  H     -189.461     522.311     -62.952
  H     -194.022     526.129     -60.330
  H     -195.582     525.868     -59.587
  H     -195.294     525.334     -61.225

 3  4  5  6  7  8  9  10  11  12  22  25  29  30  31  32 0
 6-311+G(2d,p)
 ****
 33  36  37 0
 6-311+G(2d,p)
 ****
 1  2  13  14  15  16  17  18  19  20  21  23  24  26 0
 3-21G
 ****
 27  28  34  35  38  39  40  41  42  43  44  45  46  47  48 0
 3-21G
 ****


