%nproc=1
%NoSave
%Mem=1900MB
#P OB98/GEN NMR

erre ene a

0 1
  C       54.910     -88.292     654.581
  O       55.166     -89.513     653.923
  H       54.471     -88.501     655.561
  H       54.205     -87.690     653.999
  H       55.842     -87.735     654.728
  P       55.840     -89.422     652.471
  C       53.529     -89.403     651.282
  O       54.784     -90.055     651.442
  C       53.086     -89.499     649.825
  O       53.997     -88.749     648.984
  C       53.081     -90.912     649.268
  O       51.948     -91.660     649.679
  C       53.124     -90.647     647.775
  O       51.815     -90.380     647.248
  C       53.998     -89.388     647.682
  N       56.858     -91.587     644.060
  C       55.518     -91.360     644.148
  N       54.842     -90.756     645.143
  C       55.685     -90.341     646.110
  C       57.059     -90.501     646.156
  C       57.649     -91.163     645.072
  N       59.000     -91.423     644.993
  N       57.564     -89.982     647.340
  C       56.512     -89.513     647.975
  N       55.361     -89.701     647.279
  O       57.006     -90.518     652.542
  O       56.364     -88.075     652.099
  H       51.472     -89.608     647.742
  H       57.860     -90.078     652.708
  H       54.929     -91.713     643.309
  H       56.542     -89.030     648.950
  H       53.605     -88.656     646.960
  H       53.527     -91.506     647.235
  H       54.005     -91.435     649.560
  H       52.082     -89.042     649.730
  H       53.625     -88.350     651.562
  H       52.795     -89.877     651.939
  H       59.348     -91.949     644.218
  H       59.587     -91.205     645.791
  P       52.036     -93.258     649.618
  C       51.439     -93.447     647.078
  O       51.085     -93.737     648.425
  O       51.278     -93.742     650.935
  O       53.424     -93.805     649.537
  H       51.706     -94.544     651.295
  H       50.692     -93.841     646.420
  H       52.384     -93.895     646.853
  H       51.507     -92.387     646.947

 6  7  8  9  10  11  12  13  14  15  25  28  32  33  34  35 0
 6-311+G(2d,p)
 ****
 36  37  40 0
 6-311+G(2d,p)
 ****
 1  2  3  4  5  16  17  18  19  20  21  22  23  24 0
 3-21G
 ****
 26  27  29  30  31  38  39 41  42  43  44  45  46  47  48 0
 3-21G
 ****


