%nproc=1
%NoSave
%Mem=1900MB
#P OB98/GEN NMR

erre ene a

0 1
  C      116.671      56.392    -151.457
  O      117.009      55.035    -151.169
  P      115.833      54.005    -150.813
  C      115.757      52.824    -153.103
  O      116.029      52.690    -151.711
  C      115.556      51.455    -153.751
  O      114.999      51.567    -155.075
  C      116.849      50.675    -153.922
  O      117.299      50.158    -152.682
  C      116.437      49.632    -154.949
  O      115.763      48.529    -154.323
  C      115.447      50.423    -155.834
  N      116.011      50.820    -157.116
  C      115.817      49.926    -158.175
  O      115.236      48.859    -157.988
  N      116.304      50.262    -159.415
  C      116.934      51.384    -159.579
  N      117.390      51.666    -160.829
  C      117.169      52.348    -158.486
  C      116.692      52.001    -157.291
  O      114.453      54.576    -150.812
  O      116.247      53.489    -149.349
  H      116.365      48.208    -153.623
  H      115.434      53.261    -148.855
  H      117.693      53.273    -158.674
  H      116.824      52.649    -156.432
  H      114.553      49.818    -156.037
  H      117.300      49.223    -155.482
  H      117.622      51.330    -154.349
  H      114.856      50.880    -153.126
  H      117.226      50.983    -161.558
  H      116.584      53.350    -153.587
  H      117.846      52.536    -161.069
  H      114.869      53.454    -153.228
  P      118.782      50.540    -152.208
  C      118.967      53.081    -151.725
  O      118.672      51.794    -151.219
  O      119.430      51.170    -153.533
  O      119.594      49.392    -151.704
  H      120.380      50.956    -153.565
  H      118.549      53.828    -151.045
  H      118.533      53.229    -152.718
  H      120.050      53.217    -151.775
  H      117.562      56.943    -151.673
  H      116.180      56.825    -150.610
  H      116.018      56.425    -152.304

 3  4  5  6  7  8  9  10  11  12  13  23  27  28  29  30  32 0
 6-311+G(2d,p)
 ****
 34  35 0
 6-311+G(2d,p)
 ****
 1  2  14  15  16  17  18  19  20  21  22  24  25  26 0
 3-21G
 ****
 31  33  36  37  38  39  40  41  42  43  44  45  46 0
 3-21G
 ****


