%nproc=1
%NoSave
%Mem=1900MB
#P OB98/GEN NMR

erre ene a

0 1
  C      102.467     -72.036     -12.623
  O      103.667     -72.706     -12.958
  H      102.430     -71.908     -11.538
  H      101.595     -72.615     -12.938
  H      102.446     -71.049     -13.094
  P      103.831     -73.261     -14.456
  C      102.841     -75.507     -13.657
  O      102.742     -74.437     -14.595
  C      101.796     -76.586     -13.936
  O      100.463     -76.035     -13.885
  C      101.905     -77.214     -15.318
  O      103.068     -77.982     -15.526
  C      100.541     -77.872     -15.470
  O      100.477     -79.147     -14.830
  C       99.631     -76.861     -14.729
  N       98.832     -76.058     -15.650
  C       97.594     -76.584     -15.998
  O       97.175     -77.670     -15.593
  N       96.851     -75.832     -16.868
  C       97.236     -74.657     -17.442
  O       96.530     -74.039     -18.232
  C       98.574     -74.169     -17.066
  C       99.299     -74.880     -16.197
  O      105.220     -73.670     -14.848
  O      103.222     -72.094     -15.366
  H      100.660     -78.999     -13.884
  H      103.486     -72.205     -16.313
  H       95.941     -76.188     -17.122
  H       98.919     -73.247     -17.511
  H      100.289     -74.538     -15.901
  H       98.941     -77.392     -14.059
  H      100.272     -78.020     -16.518
  H      101.944     -76.406     -16.061
  H      101.873     -77.344     -13.148
  H      102.670     -75.090     -12.657
  H      103.848     -75.934     -13.696
  P      103.875     -78.009     -16.904
  C      102.846     -80.324     -17.558
  O      103.105     -78.973     -17.928
  O      105.362     -78.131     -16.805
  O      103.545     -76.548     -17.506
  H      104.339     -76.253     -17.999
  H      102.328     -80.819     -18.353
  H      102.243     -80.342     -16.674
  H      103.772     -80.826     -17.369

 6  7  8  9  10  11  12  13  14  15  16  26  31  32  33  34  35 0
 6-311+G(2d,p)
 ****
 36  37 0
 6-311+G(2d,p)
 ****
 1  2  3  4  5  17  18  19  20  21  22  23  24  25 0
 3-21G
 ****
 27  28  29  30  38  39  40  41  42  43  44  45 0
 3-21G
 ****


