%nproc=1
%NoSave
%Mem=1900MB
#P OB98/GEN NMR

erre ene a

0 1
  C       -4.452       1.756       4.438
  O       -3.083       1.720       4.088
  H       -4.624       2.510       5.210
  H       -5.034       2.021       3.552
  H       -4.778       0.775       4.794
  P       -2.056       1.318       5.253
  C       -1.722       2.033       7.724
  O       -2.405       2.263       6.502
  C       -2.399       2.799       8.856
  O       -3.688       2.222       9.146
  C       -1.638       2.789      10.178
  O       -0.582       3.736      10.186
  C       -2.745       3.179      11.145
  O       -2.956       4.603      11.093
  C       -3.959       2.445      10.555
  N       -7.430      -0.342      13.075
  C       -7.496       0.880      12.505
  N       -6.536       1.548      11.833
  C       -5.413       0.815      11.761
  C       -5.200      -0.453      12.273
  C       -6.271      -1.040      12.966
  N       -6.169      -2.265      13.605
  N       -3.910      -0.875      12.014
  C       -3.352       0.130      11.373
  N       -4.221       1.170      11.191
  O       -0.662       1.898       4.712
  O       -1.970      -0.141       5.549
  H       -2.140       5.019      11.431
  H       -0.163       1.181       4.280
  H       -8.447       1.393      12.604
  H       -2.327       0.150      11.029
  H       -4.874       3.044      10.617
  H       -2.518       2.923      12.184
  H       -1.282       1.783      10.428
  H       -2.567       3.828       8.513
  H       -0.684       2.369       7.631
  H       -6.780      -2.353      14.412
  H       -5.219      -2.602      13.712
  H       -1.731       0.959       7.934
  P        0.795       3.313      10.891
  C        1.597       3.124      13.343
  O        0.484       3.190      12.462
  O        1.676       4.645      10.780
  O        1.494       2.150      10.277
  H        2.517       4.447      10.326
  H        1.249       3.045      14.352
  H        2.188       4.010      13.238
  H        2.192       2.268      13.103

 6  7  8  9  10  11  12  13  14  15  25  28  32  33  34  35 0
 6-311+G(2d,p)
 ****
 36  39  40 0
 6-311+G(2d,p)
 ****
 1  2  3  4  5  16  17  18  19  20  21  22  23  24 0
 3-21G
 ****
 26  27  29  30  31  37  38  41  42  43  44  45  46  47  48 0
 3-21G
 ****


