%nproc=1
%NoSave
%Mem=1900MB
#P OB98/GEN NMR

erre ene a

0 1
  C      755.071    -290.954     100.685
  O      756.119    -291.898     100.629
  H      755.343    -290.093     100.073
  H      754.933    -290.617     101.718
  H      754.134    -291.373     100.306
  P      755.863    -293.375     101.199
  C      757.718    -293.669     102.968
  O      757.299    -293.947     101.636
  C      759.248    -293.764     103.090
  O      759.833    -292.510     102.630
  C      759.743    -294.013     104.522
  O      760.963    -294.767     104.427
  C      760.034    -292.600     104.993
  O      760.873    -292.595     106.133
  C      760.621    -291.988     103.717
  N      760.615    -290.522     103.746
  C      761.761    -289.907     104.249
  O      762.733    -290.531     104.682
  N      761.745    -288.541     104.272
  C      760.689    -287.746     103.919
  O      760.714    -286.522     103.992
  C      759.488    -288.454     103.439
  C      759.508    -289.793     103.371
  O      755.074    -294.281     100.318
  O      755.142    -293.134     102.609
  H      761.815    -292.660     105.860
  H      754.538    -293.877     102.811
  H      762.569    -288.076     104.622
  H      758.630    -287.859     103.166
  H      758.640    -290.336     103.025
  H      761.666    -292.316     103.569
  H      759.108    -292.082     105.270
  H      759.020    -294.534     105.153
  H      759.607    -294.548     102.409
  H      757.250    -294.407     103.632
  H      757.392    -292.667     103.260
  P      761.104    -296.237     105.057
  C      763.614    -296.038     105.645
  O      762.623    -296.737     104.884
  O      760.080    -297.215     104.571
  O      760.969    -296.019     106.638
  H      760.600    -296.826     107.055
  H      764.578    -296.459     105.447
  H      763.392    -296.129     106.688
  H      763.612    -295.004     105.369

 6  7  8  9  10  11  12  13  14  15  16  26  31  32  33  34  35 0
 6-311+G(2d,p)
 ****
 36  37 0
 6-311+G(2d,p)
 ****
 1  2  3  4  5  17  18  19  20  21  22  23  24  25 0
 3-21G
 ****
 27  28  29  30  38  39  40  41  42  43  44  45 0
 3-21G
 ****


