%nproc=1
%NoSave
%Mem=1900MB
#P OB98/GEN NMR

erre ene a

0 1
  C      317.860     198.466     -33.649
  O      317.538     199.540     -32.790
  H      318.892     198.586     -33.994
  H      317.197     198.468     -34.518
  H      317.775     197.516     -33.116
  P      316.059     199.557     -32.174
  C      315.183     201.406     -33.770
  O      315.086     200.049     -33.357
  C      313.988     201.783     -34.643
  O      314.053     203.207     -34.940
  C      313.932     201.033     -35.983
  O      312.564     200.743     -36.290
  C      314.452     202.059     -36.971
  O      314.017     201.797     -38.301
  C      313.898     203.345     -36.365
  N      313.184     207.851     -38.492
  C      312.267     206.908     -38.066
  N      310.961     207.203     -38.230
  N      312.609     205.766     -37.522
  C      313.948     205.611     -37.392
  C      314.953     206.466     -37.783
  C      314.565     207.716     -38.404
  O      315.327     208.581     -38.821
  N      316.189     205.929     -37.512
  C      315.931     204.760     -36.956
  N      314.586     204.525     -36.858
  O      316.084     200.807     -31.174
  O      315.631     198.302     -31.492
  H      314.193     202.598     -38.840
  H      315.474     200.668     -30.423
  H      312.868     208.709     -38.912
  H      316.674     204.051     -36.612
  H      312.832     203.483     -36.586
  H      315.551     202.066     -36.965
  H      310.625     208.075     -38.608
  H      314.516     200.111     -35.989
  H      310.273     206.529     -37.912
  H      313.066     201.625     -34.065
  H      316.109     201.538     -34.341
  H      315.214     202.050     -32.884
  P      311.854     199.558     -35.472
  C      311.627     197.792     -37.361
  O      312.257     198.156     -36.140
  O      310.309     199.729     -35.860
  O      312.051     199.646     -33.994
  H      309.815     200.079     -35.098
  H      311.994     196.840     -37.682
  H      311.844     198.527     -38.107
  H      310.569     197.735     -37.213

 6  7  8  9  10  11  12  13  14  15  26  29  33  34 0
 6-311+G(2d,p)
 ****
 36  38  39  40  41 0
 6-311+G(2d,p)
 ****
 1  2  3  4  5  16  17  18  19  20  21  22  23  24  25 0
 3-21G
 ****
 27  28  30  31  32  35  37  42  43  44  45  46  47 0
 3-21G
 ****
 48  49 0
 3-21G
 ****


