%nproc=1
%NoSave
%Mem=1900MB
#P OB98/GEN NMR

erre ene a

0 1
  C     -186.510    -381.485     327.944
  O     -185.788    -382.696     327.985
  H     -185.923    -380.711     328.443
  H     -187.461    -381.598     328.471
  H     -186.697    -381.168     326.913
  P     -186.262    -383.908     327.054
  C     -183.951    -384.938     326.536
  O     -185.182    -385.083     327.226
  C     -183.257    -386.298     326.365
  O     -182.973    -386.846     327.680
  C     -184.161    -387.304     325.648
  O     -183.417    -388.286     324.934
  C     -184.890    -387.983     326.801
  O     -185.390    -389.276     326.465
  C     -183.801    -388.003     327.873
  N     -184.980    -390.799     331.968
  C     -184.645    -391.219     330.699
  N     -184.608    -392.558     330.493
  N     -184.381    -390.398     329.715
  C     -184.521    -389.089     330.046
  C     -184.874    -388.556     331.262
  C     -185.130    -389.476     332.356
  O     -185.459    -389.154     333.494
  N     -184.920    -387.185     331.214
  C     -184.602    -386.889     329.968
  N     -184.327    -388.011     329.224
  O     -185.963    -383.382     325.570
  O     -187.693    -384.324     327.209
  H     -186.021    -389.167     325.730
  H     -186.509    -383.861     324.924
  H     -185.143    -391.473     332.701
  H     -184.545    -385.890     329.562
  H     -183.166    -388.888     327.765
  H     -185.746    -387.363     327.076
  H     -184.992    -393.201     331.162
  H     -184.867    -386.827     324.968
  H     -184.674    -392.864     329.521
  H     -182.299    -386.167     325.861
  H     -183.333    -384.260     327.124
  H     -184.112    -384.464     325.562
  P     -183.665    -388.440     323.360
  C     -181.454    -389.637     322.525
  O     -182.840    -389.685     322.795
  O     -182.925    -387.174     322.726
  O     -185.110    -388.494     322.969
  H     -183.567    -386.574     322.308
  H     -181.129    -390.588     322.156
  H     -180.923    -389.403     323.424
  H     -181.260    -388.884     321.790

 6  7  8  9  10  11  12  13  14  15  26  29  33  34 0
 6-311+G(2d,p)
 ****
 36  38  39  40  41 0
 6-311+G(2d,p)
 ****
 1  2  3  4  5  16  17  18  19  20  21  22  23  24  25 0
 3-21G
 ****
 27  28  30  31  32  35  37  42  43  44  45  46  47 0
 3-21G
 ****
 48  49 0
 3-21G
 ****


