%nproc=1
%NoSave
%Mem=1900MB
#P OB98/GEN NMR

erre ene a

0 1
  C      795.223     -75.430      67.889
  O      794.054     -75.506      67.098
  H      795.901     -76.231      67.593
  H      794.962     -75.564      68.941
  H      795.727     -74.470      67.750
  P      793.058     -74.251      67.145
  C      791.619     -75.170      69.095
  O      792.498     -74.149      68.649
  C      790.203     -74.616      69.267
  O      789.272     -75.732      69.323
  C      790.012     -73.781      70.537
  O      789.150     -72.680      70.237
  C      789.313     -74.738      71.485
  O      788.542     -74.057      72.480
  C      788.483     -75.569      70.516
  N      784.900     -78.108      72.996
  C      784.890     -76.829      72.482
  N      783.763     -76.105      72.658
  N      785.905     -76.291      71.848
  C      786.953     -77.141      71.708
  C      787.086     -78.430      72.180
  C      785.967     -78.994      72.900
  O      785.922     -80.115      73.397
  N      788.316     -78.946      71.865
  C      788.928     -77.974      71.213
  N      788.141     -76.866      71.085
  O      791.794     -74.761      66.308
  O      793.602     -72.980      66.587
  H      787.802     -73.613      72.023
  H      791.694     -74.221      65.499
  H      784.092     -78.461      73.485
  H      789.935     -78.020      70.820
  H      787.537     -75.079      70.245
  H      790.056     -75.358      72.002
  H      782.931     -76.469      73.095
  H      790.952     -73.408      70.949
  H      783.721     -75.173      72.258
  H      789.947     -74.038      68.368
  H      791.979     -75.553      70.061
  H      791.613     -75.990      68.367
  P      789.852     -71.264      69.947
  C      789.734     -70.184      72.298
  O      790.559     -70.769      71.305
  O      788.616     -70.265      69.784
  O      790.721     -71.254      68.737
  H      788.512     -70.016      68.852
  H      790.333     -69.904      73.139
  H      788.992     -70.891      72.607
  H      789.254     -69.316      71.897

 6  7  8  9  10  11  12  13  14  15  26  29  33  34 0
 6-311+G(2d,p)
 ****
 36  38  39  40  41 0
 6-311+G(2d,p)
 ****
 1  2  3  4  5  16  17  18  19  20  21  22  23  24  25 0
 3-21G
 ****
 27  28  30  31  32  35  37  42  43  44  45  46  47 0
 3-21G
 ****
 48  49 0
 3-21G
 ****


