%nproc=1
%NoSave
%Mem=1900MB
#P OB98/GEN NMR

erre ene a

0 1
  C     1079.470     789.270    -363.837
  O     1080.455     788.281    -364.073
  H     1079.361     789.880    -364.734
  H     1079.769     789.918    -363.003
  H     1078.510     788.798    -363.608
  P     1080.886     787.326    -362.868
  C     1081.399     784.944    -363.761
  O     1081.894     786.261    -363.541
  C     1081.558     784.552    -365.227
  O     1080.551     785.186    -366.050
  C     1082.914     784.972    -365.843
  O     1083.995     784.171    -365.423
  C     1082.576     784.764    -367.323
  O     1082.605     783.370    -367.640
  C     1081.112     785.313    -367.393
  N     1081.058     786.729    -367.809
  C     1080.669     786.956    -369.128
  O     1080.404     786.027    -369.890
  N     1080.614     788.258    -369.602
  C     1080.958     789.233    -368.799
  N     1080.958     790.498    -369.339
  C     1081.365     789.033    -367.392
  C     1081.393     787.765    -366.961
  O     1079.778     786.738    -362.049
  O     1081.912     788.209    -361.990
  H     1082.104     782.896    -366.965
  H     1082.211     787.657    -361.228
  H     1081.647     789.875    -366.779
  H     1081.695     787.541    -365.961
  H     1080.509     784.714    -368.066
  H     1083.278     785.267    -367.994
  H     1083.089     786.030    -365.668
  H     1081.417     783.463    -365.293
  H     1080.704     790.592    -370.301
  H     1080.348     784.916    -363.458
  H     1081.457     791.246    -368.871
  H     1081.959     784.229    -363.151
  P     1085.361     784.933    -365.002
  C     1085.632     783.768    -362.714
  O     1086.138     783.950    -364.019
  O     1084.840     786.099    -364.062
  O     1086.204     785.415    -366.160
  H     1084.712     786.941    -364.587
  H     1086.259     783.085    -362.180
  H     1084.639     783.373    -362.768
  H     1085.614     784.708    -362.204

 6  7  8  9  10  11  12  13  14  15  16  26  30  31  32  33  35 0
 6-311+G(2d,p)
 ****
 37  38 0
 6-311+G(2d,p)
 ****
 1  2  3  4  5  17  18  19  20  21  22  23  24  25 0
 3-21G
 ****
 27  28  29  34  36  39  40  41  42  43  44  45  46 0
 3-21G
 ****


