%nproc=1
%NoSave
%Mem=1900MB
#P OB98/GEN NMR

erre ene a

0 1
  C       24.307     -67.568     -45.070
  O       24.073     -66.390     -44.321
  H       24.216     -68.429     -44.404
  H       25.315     -67.551     -45.491
  H       23.567     -67.658     -45.869
  P       24.136     -65.005     -45.129
  C       22.527     -63.807     -43.492
  O       23.846     -63.886     -44.017
  C       22.152     -62.355     -43.201
  O       22.981     -61.818     -42.155
  C       22.322     -61.414     -44.388
  O       21.214     -61.508     -45.269
  C       22.367     -60.070     -43.679
  O       21.029     -59.650     -43.347
  C       23.148     -60.395     -42.393
  N       27.151     -58.588     -39.733
  C       25.829     -58.615     -39.457
  N       24.819     -59.072     -40.229
  C       25.285     -59.537     -41.400
  C       26.606     -59.574     -41.819
  C       27.568     -59.079     -40.923
  N       28.917     -59.062     -41.205
  N       26.703     -60.120     -43.082
  C       25.468     -60.457     -43.396
  N       24.568     -60.092     -42.426
  O       23.310     -64.939     -46.367
  O       25.716     -64.857     -45.357
  H       20.481     -59.755     -44.149
  H       26.204     -65.158     -44.569
  H       25.544     -58.220     -38.487
  H       25.175     -60.979     -44.300
  H       22.738     -59.866     -41.525
  H       22.800     -59.286     -44.304
  H       23.275     -61.582     -44.899
  H       21.118     -62.343     -42.835
  H       22.446     -64.403     -42.576
  H       29.516     -58.537     -40.584
  H       29.212     -59.312     -42.138
  H       21.849     -64.229     -44.240
  P       21.436     -61.605     -46.854
  C       19.718     -63.269     -47.800
  O       19.996     -61.906     -47.500
  O       22.515     -62.539     -47.283
  O       21.731     -60.103     -47.313
  H       22.412     -60.090     -48.012
  H       18.738     -63.349     -48.223
  H       19.767     -63.849     -46.902
  H       20.439     -63.634     -48.501

 6  7  8  9  10  11  12  13  14  15  25  28  32  33  34  35 0
 6-311+G(2d,p)
 ****
 36  39  40 0
 6-311+G(2d,p)
 ****
 1  2  3  4  5  16  17  18  19  20  21  22  23  24 0
 3-21G
 ****
 26  27  29  30  31  37  38  41  42  43  44  45  46  47 0
 3-21G
 ****
 48 0
 3-21G
 ****


