%nproc=1
%NoSave
%Mem=1900MB
#P OB98/GEN NMR

erre ene a

0 1
  C       24.249      76.894      31.239
  O       24.193      76.341      32.539
  H       23.392      77.557      31.102
  H       24.198      76.097      30.494
  H       25.168      77.472      31.105
  P       25.473      75.520      33.045
  C       25.943      76.837      35.236
  O       25.482      75.630      34.647
  C       25.208      77.090      36.552
  O       23.885      77.617      36.249
  C       25.017      75.834      37.411
  O       25.129      76.208      38.788
  C       23.582      75.435      37.119
  O       22.986      74.643      38.137
  C       22.926      76.810      36.962
  N       21.655      76.747      36.244
  C       20.492      76.708      37.006
  O       20.452      76.808      38.230
  N       19.328      76.546      36.298
  C       19.221      76.399      34.947
  O       18.150      76.236      34.375
  C       20.484      76.439      34.198
  C       21.624      76.606      34.871
  O       26.695      76.451      32.602
  O       25.592      74.129      32.518
  H       26.993      76.218      31.702
  H       22.017      74.772      38.079
  H       18.477      76.515      36.835
  H       20.438      76.315      33.125
  H       22.576      76.619      34.350
  H       22.773      77.274      37.942
  H       23.536      74.871      36.181
  H       25.722      75.027      37.188
  H       25.743      77.868      37.110
  H       25.750      77.671      34.554
  H       27.022      76.764      35.408
  P       25.288      75.025      39.862
  C       27.649      75.759      40.728
  O       26.263      75.603      40.996
  O       26.192      73.990      39.048
  O       23.980      74.490      40.337
  H       26.838      74.424      38.465
  H       28.137      76.154      41.594
  H       27.780      76.432      39.907
  H       28.074      74.808      40.481

 6  7  8  9  10  11  12  13  14  15  16  27  31  32  33  34  35 0
 6-311+G(2d,p)
 ****
 36  37 0
 6-311+G(2d,p)
 ****
 1  2  3  4  5  17  18  19  20  21  22  23  24  25 0
 3-21G
 ****
 26  28  29  30  38  39  40  41  42  43  44  45 0
 3-21G
 ****


