%nproc=1
%NoSave
%Mem=1900MB
#P OB98/GEN NMR

erre ene a

0 1
  C     -197.756     -24.080     -63.500
  O     -199.047     -24.014     -62.884
  P     -200.019     -25.281     -63.073
  C     -199.517     -25.980     -60.602
  O     -200.492     -25.697     -61.593
  C     -200.052     -25.657     -59.200
  O     -199.948     -24.219     -58.953
  C     -201.515     -26.058     -58.972
  O     -201.614     -26.520     -57.612
  C     -202.266     -24.752     -59.143
  O     -203.534     -24.778     -58.500
  C     -201.253     -23.768     -58.537
  N     -201.503     -22.385     -58.946
  C     -202.294     -21.608     -58.098
  O     -202.838     -22.061     -57.093
  N     -202.468     -20.307     -58.476
  C     -202.018     -19.735     -59.635
  O     -202.205     -18.562     -59.924
  C     -201.287     -20.638     -60.549
  C     -201.067     -21.900     -60.164
  O     -198.981     -26.419     -63.499
  O     -201.121     -25.029     -64.053
  H     -198.124     -26.351     -63.035
  H     -204.126     -25.388     -58.990
  H     -203.014     -19.717     -57.863
  H     -200.964     -20.237     -61.502
  H     -200.551     -22.592     -60.820
  H     -201.286     -23.815     -57.443
  H     -202.420     -24.543     -60.209
  H     -201.854     -26.854     -59.651
  H     -199.409     -26.158     -58.465
  H     -198.620     -25.379     -60.783
  H     -199.217     -27.035     -60.676
  P     -202.050     -28.050     -57.357
  C     -199.941     -29.430     -58.080
  O     -200.714     -28.876     -57.036
  O     -202.399     -28.495     -58.862
  O     -203.204     -28.231     -56.419
  H     -201.715     -28.237     -59.504
  H     -198.970     -29.730     -57.677
  H     -199.772     -28.698     -58.879
  H     -200.448     -30.310     -58.492
  H     -197.217     -23.178     -63.296
  H     -197.871     -24.196     -64.557
  H     -197.215     -24.915     -63.106

 3  4  5  6  7  8  9  10  11  12  13  24  28  29  30  31  32 0
 6-311+G(2d,p)
 ****
 33  34 0
 6-311+G(2d,p)
 ****
 1  2  14  15  16  17  18  19  20  21  22  23  25  26  27 0
 3-21G
 ****
 35  36  37  38  39  40  41  42  43  44  45 0
 3-21G
 ****


