%nproc=1
%NoSave
%Mem=1900MB
#P OB98/GEN NMR

erre ene a

0 1
  C     -283.826    -405.701    -142.311
  O     -282.947    -405.079    -143.226
  H     -283.260    -405.986    -141.421
  H     -284.254    -406.600    -142.760
  H     -284.624    -405.013    -142.019
  P     -283.597    -404.497    -144.574
  C     -282.865    -406.368    -146.214
  O     -282.680    -405.027    -145.785
  C     -281.663    -407.229    -145.828
  O     -281.731    -407.522    -144.399
  C     -281.587    -408.573    -146.567
  O     -280.203    -408.879    -146.788
  C     -282.130    -409.556    -145.541
  O     -281.715    -410.897    -145.791
  C     -281.569    -408.945    -144.259
  N     -280.826    -410.494    -139.527
  C     -279.935    -409.992    -140.461
  N     -278.643    -409.889    -140.072
  N     -280.279    -409.626    -141.665
  C     -281.606    -409.754    -141.905
  C     -282.589    -410.238    -141.075
  C     -282.189    -410.664    -139.747
  O     -282.929    -411.133    -138.887
  N     -283.812    -410.234    -141.698
  C     -283.567    -409.747    -142.901
  N     -282.244    -409.444    -143.076
  O     -283.243    -402.937    -144.488
  O     -285.061    -404.731    -144.731
  H     -281.943    -411.114    -146.718
  H     -283.980    -402.447    -144.079
  H     -280.507    -410.771    -138.617
  H     -284.305    -409.603    -143.681
  H     -280.503    -409.159    -144.129
  H     -283.226    -409.531    -145.540
  H     -278.317    -410.107    -139.147
  H     -282.128    -408.599    -147.517
  H     -277.984    -409.484    -140.726
  H     -280.751    -406.644    -145.986
  H     -282.980    -406.382    -147.303
  H     -283.777    -406.772    -145.753
  P     -279.809    -409.665    -148.124
  C     -277.514    -410.611    -147.345
  O     -278.211    -409.730    -148.214
  O     -280.183    -408.617    -149.277
  O     -280.523    -410.966    -148.307
  H     -280.409    -409.094    -150.098
  H     -276.463    -410.536    -147.529
  H     -277.837    -411.616    -147.522
  H     -277.718    -410.345    -146.329

 6  7  8  9  10  11  12  13  14  15  26  29  33  34 0
 6-311+G(2d,p)
 ****
 36  38  39  40  41 0
 6-311+G(2d,p)
 ****
 1  2  3  4  5  16  17  18  19  20  21  22  23  24  25 0
 3-21G
 ****
 27  28  30  31  32  35  37  42  43  44  45  46  47 0
 3-21G
 ****
 48  49 0
 3-21G
 ****


