%nproc=1
%NoSave
%Mem=1900MB
#P OB98/GEN NMR

erre ene a

0 1
  C      148.871      21.440     -44.983
  O      148.791      20.158     -44.395
  H      148.883      21.327     -46.070
  H      149.785      21.953     -44.675
  H      147.998      22.037     -44.704
  P      148.918      20.028     -42.804
  C      151.340      20.894     -42.938
  O      150.056      21.065     -42.352
  C      152.341      21.889     -42.350
  O      151.908      23.234     -42.687
  C      152.473      21.798     -40.826
  O      153.841      22.022     -40.479
  C      151.607      22.945     -40.350
  O      151.985      23.380     -39.058
  C      151.794      23.981     -41.463
  N      150.679      24.926     -41.499
  C      150.820      26.026     -42.350
  O      151.837      26.156     -43.033
  N      149.843      26.987     -42.362
  C      148.836      26.890     -41.553
  N      147.923      27.897     -41.588
  C      148.658      25.762     -40.617
  C      149.606      24.825     -40.644
  O      149.086      18.645     -42.268
  O      147.573      20.707     -42.262
  H      152.272      22.608     -38.526
  H      146.874      20.033     -42.166
  H      147.804      25.730     -39.958
  H      149.565      23.966     -39.984
  H      152.726      24.542     -41.321
  H      150.559      22.623     -40.305
  H      152.137      20.838     -40.424
  H      153.311      21.736     -42.839
  H      148.099      28.662     -42.227
  H      151.242      21.065     -44.016
  H      147.122      27.953     -40.977
  H      151.688      19.870     -42.775
  P      154.987      21.017     -40.981
  C      155.135      19.204     -39.180
  O      154.639      19.531     -40.474
  O      156.382      21.462     -40.687
  O      154.749      20.928     -42.565
  H      155.602      20.763     -43.009
  H      154.854      18.201     -38.933
  H      154.722      19.878     -38.459
  H      156.202      19.287     -39.176

 6  7  8  9  10  11  12  13  14  15  16  26  30  31  32  33  35 0
 6-311+G(2d,p)
 ****
 37  38 0
 6-311+G(2d,p)
 ****
 1  2  3  4  5  17  18  19  20  21  22  23  24  25 0
 3-21G
 ****
 27  28  29  34  36  39  40  41  42  43  44  45  46 0
 3-21G
 ****


