%nproc=1
%NoSave
%Mem=1900MB
#P OB98/GEN NMR

erre ene a

0 1
  C       48.008     518.806    -171.969
  O       48.907     517.823    -171.483
  P       50.478     518.140    -171.579
  C       50.989     518.992    -169.179
  O       50.782     519.328    -170.544
  C       52.314     519.562    -168.673
  O       53.384     519.121    -169.556
  C       52.369     521.097    -168.617
  O       53.176     521.440    -167.484
  C       53.073     521.437    -169.918
  O       53.601     522.751    -169.962
  C       54.095     520.307    -169.978
  N       57.236     522.282    -173.494
  C       56.939     522.670    -172.233
  N       56.098     522.088    -171.352
  C       55.542     520.987    -171.884
  C       55.735     520.478    -173.156
  C       56.629     521.177    -173.985
  N       56.925     520.783    -175.274
  N       54.972     519.347    -173.356
  C       54.328     519.174    -172.220
  N       54.656     520.126    -171.295
  O       50.616     518.851    -173.004
  O       51.370     516.944    -171.460
  H       54.269     522.866    -169.257
  H       51.435     518.575    -173.457
  H       57.442     523.567    -171.885
  H       53.610     518.390    -172.022
  H       54.925     520.466    -169.278
  H       52.355     521.354    -170.743
  H       51.385     521.562    -168.508
  H       52.517     519.140    -167.679
  H       51.022     517.903    -169.075
  H       57.417     521.453    -175.846
  H       56.319     520.089    -175.694
  H       50.149     519.360    -168.584
  P       52.805     522.752    -166.638
  C       51.624     521.395    -164.804
  O       51.470     522.336    -165.847
  O       52.217     523.701    -167.786
  O       53.913     523.349    -165.842
  H       51.542     523.243    -168.317
  H       50.664     521.278    -164.295
  H       52.368     521.742    -164.085
  H       51.922     520.428    -165.217
  H       47.002     518.463    -171.843
  H       48.198     518.980    -173.008
  H       48.146     519.716    -171.424

 3  4  5  6  7  8  9  10  11  12  22  25  29  30  31  32 0
 6-311+G(2d,p)
 ****
 33  36  37 0
 6-311+G(2d,p)
 ****
 1  2  13  14  15  16  17  18  19  20  21  23  24  26 0
 3-21G
 ****
 27  28  34  35  38  39  40  41  42  43  44  45  46  47  48 0
 3-21G
 ****


