%nproc=1
%NoSave
%Mem=1900MB
#P OB98/GEN NMR

erre ene a

0 1
  C     -306.069     147.229      82.115
  O     -305.478     147.339      83.394
  H     -306.505     148.195      81.844
  H     -306.864     146.475      82.128
  H     -305.314     146.959      81.372
  P     -304.871     145.986      84.018
  C     -306.001     143.748      84.748
  O     -306.171     145.070      84.257
  C     -307.312     142.978      84.621
  O     -307.682     142.834      83.231
  C     -307.258     141.561      85.176
  O     -307.364     141.514      86.591
  C     -308.475     140.956      84.501
  O     -309.673     141.415      85.157
  C     -308.357     141.553      83.080
  N     -307.618     140.692      82.152
  C     -308.102     140.627      80.840
  O     -309.100     141.259      80.508
  N     -307.456     139.813      79.935
  C     -306.412     139.135      80.307
  N     -305.820     138.336      79.376
  C     -305.861     139.191      81.674
  C     -306.505     139.974      82.534
  O     -304.465     146.407      85.508
  O     -303.777     145.338      83.238
  H     -309.590     142.382      85.250
  H     -304.193     145.605      86.018
  H     -304.998     138.598      81.937
  H     -306.157     140.065      83.557
  H     -309.347     141.756      82.655
  H     -308.489     139.862      84.533
  H     -306.365     141.025      84.834
  H     -308.100     143.569      85.108
  H     -306.258     138.271      78.469
  H     -305.697     143.807      85.800
  H     -305.124     137.640      79.619
  H     -305.221     143.233      84.179
  P     -306.201     140.765      87.402
  C     -305.341     138.322      87.600
  O     -306.273     139.213      87.004
  O     -306.739     140.787      88.908
  O     -304.842     141.390      87.282
  H     -306.013     140.940      89.542
  H     -305.514     137.330      87.238
  H     -305.460     138.340      88.663
  H     -304.346     138.625      87.348

 6  7  8  9  10  11  12  13  14  15  16  26  30  31  32  33  35 0
 6-311+G(2d,p)
 ****
 37  38 0
 6-311+G(2d,p)
 ****
 1  2  3  4  5  17  18  19  20  21  22  23  24  25 0
 3-21G
 ****
 27  28  29  34  36  39  40  41  42  43  44  45  46 0
 3-21G
 ****


