%nproc=1
%NoSave
%Mem=1900MB
#P OB98/GEN NMR

erre ene a

0 1
  C     -274.148    -233.359     234.252
  O     -273.664    -232.306     235.091
  P     -272.344    -232.617     235.947
  C     -273.542    -232.149     238.205
  O     -272.457    -231.833     237.343
  C     -273.917    -230.929     239.046
  O     -274.897    -230.103     238.382
  C     -274.539    -231.289     240.390
  O     -273.554    -231.746     241.302
  C     -275.187    -229.961     240.769
  O     -274.206    -229.054     241.300
  C     -275.683    -229.447     239.408
  N     -280.377    -229.162     241.422
  C     -279.164    -228.820     241.907
  N     -277.960    -228.928     241.308
  C     -278.087    -229.443     240.074
  C     -279.257    -229.835     239.444
  C     -280.448    -229.682     240.174
  N     -281.682    -230.045     239.685
  N     -278.991    -230.320     238.181
  C     -277.680    -230.243     238.058
  N     -277.091    -229.710     239.172
  O     -271.198    -231.827     235.160
  O     -272.033    -234.073     236.062
  H     -273.989    -229.355     242.206
  H     -270.613    -232.458     234.699
  H     -279.158    -228.403     242.910
  H     -277.116    -230.560     237.190
  H     -275.533    -228.368     239.292
  H     -275.975    -230.068     241.520
  H     -275.309    -232.057     240.256
  H     -273.008    -230.333     239.206
  H     -273.275    -232.983     238.861
  H     -282.476    -229.975     240.302
  H     -281.736    -230.514     238.792
  H     -274.388    -232.485     237.597
  P     -273.864    -233.090     242.120
  C     -272.716    -231.709     243.956
  O     -272.882    -232.995     243.390
  O     -273.153    -234.193     241.210
  O     -275.302    -233.324     242.430
  H     -272.261    -233.911     240.930
  H     -272.056    -231.792     244.825
  H     -273.680    -231.310     244.279
  H     -272.255    -231.035     243.228
  H     -275.026    -233.030     233.737
  H     -274.385    -234.213     234.852
  H     -273.395    -233.622     233.539

 3  4  5  6  7  8  9  10  11  12  22  25  29  30  31  32 0
 6-311+G(2d,p)
 ****
 33  36  37 0
 6-311+G(2d,p)
 ****
 1  2  13  14  15  16  17  18  19  20  21  23  24  26 0
 3-21G
 ****
 27  28  34  35  38  39  40  41  42  43  44  45  46  47  48 0
 3-21G
 ****


