%nproc=1
%NoSave
%Mem=1900MB
#P OB98/GEN NMR

erre ene a

0 1
  C       90.298      61.076      29.326
  O       91.539      61.083      28.655
  H       89.509      61.291      28.601
  H       90.288      61.852      30.096
  H       90.099      60.103      29.782
  P       92.824      60.486      29.401
  C       92.893      58.662      27.573
  O       92.951      58.949      28.964
  C       93.422      57.253      27.285
  O       94.845      57.218      27.569
  C       92.762      56.207      28.190
  O       92.719      54.920      27.580
  C       93.701      56.156      29.384
  O       93.610      54.936      30.118
  C       95.055      56.375      28.715
  N       98.485      55.635      32.412
  C       97.533      54.766      31.920
  N       97.490      53.536      32.485
  N       96.685      55.081      30.976
  C       96.794      56.364      30.556
  C       97.681      57.324      30.982
  C       98.640      56.955      32.005
  O       99.489      57.691      32.494
  N       97.484      58.516      30.330
  C       96.478      58.279      29.512
  N       96.040      56.979      29.594
  O       92.355      60.374      30.930
  O       94.081      61.293      29.270
  H       93.622      54.204      29.471
  H       93.128      60.358      31.521
  H       99.134      55.332      33.119
  H       96.041      59.002      28.833
  H       95.471      55.424      28.360
  H       93.429      56.965      30.070
  H       97.989      53.328      33.337
  H       91.757      56.490      28.496
  H       96.620      53.011      32.364
  H       93.305      57.019      26.220
  H       93.502      59.415      27.067
  H       91.872      58.774      27.207
  P       91.745      53.810      28.199
  C       90.238      53.672      26.028
  O       90.347      53.821      27.427
  O       91.386      54.386      29.646
  O       92.337      52.437      28.274
  H       91.734      53.801      30.345
  H       89.207      53.712      25.744
  H       90.652      52.729      25.736
  H       90.772      54.462      25.542

 6  7  8  9  10  11  12  13  14  15  26  29  33  34 0
 6-311+G(2d,p)
 ****
 36  38  39  40  41 0
 6-311+G(2d,p)
 ****
 1  2  3  4  5  16  17  18  19  20  21  22  23  24  25 0
 3-21G
 ****
 27  28  30  31  32  35  37  42  43  44  45  46  47 0
 3-21G
 ****
 48  49 0
 3-21G
 ****


