%nproc=1
%NoSave
%Mem=1900MB
#P OB98/GEN NMR

erre ene a

0 1
  C       -0.990    -482.204     -23.210
  O       -2.352    -482.426     -22.827
  P       -2.793    -482.590     -21.293
  C       -5.190    -481.879     -21.914
  O       -4.378    -482.833     -21.235
  C       -6.682    -482.169     -21.730
  O       -7.066    -483.356     -22.450
  C       -7.105    -482.403     -20.281
  O       -7.228    -481.173     -19.594
  C       -8.412    -483.167     -20.473
  O       -9.491    -482.259     -20.756
  C       -8.099    -484.027     -21.704
  N       -9.603    -488.906     -21.411
  C      -10.242    -487.786     -21.821
  N       -9.773    -486.522     -21.865
  C       -8.495    -486.474     -21.449
  C       -7.719    -487.529     -21.000
  C       -8.323    -488.798     -20.986
  N       -7.678    -489.934     -20.554
  N       -6.465    -487.092     -20.633
  C       -6.477    -485.794     -20.875
  N       -7.682    -485.375     -21.369
  O       -2.308    -481.497     -20.397
  O       -2.185    -484.000     -20.844
  H       -9.407    -481.506     -20.142
  H       -2.009    -483.991     -19.884
  H      -11.264    -487.927     -22.157
  H       -5.644    -485.124     -20.715
  H       -8.965    -484.107     -22.371
  H       -8.698    -483.745     -19.589
  H       -6.379    -483.049     -19.777
  H       -7.244    -481.330     -22.159
  H       -4.941    -481.910     -22.982
  H       -8.192    -490.800     -20.544
  H       -6.737    -489.855     -20.191
  H       -4.954    -480.881     -21.527
  P       -6.240    -480.826     -18.382
  C       -5.620    -478.422     -19.020
  O       -6.339    -479.248     -18.126
  O       -4.851    -481.365     -18.508
  O       -6.982    -481.438     -17.100
  H       -6.317    -481.702     -16.439
  H       -4.566    -478.401     -18.727
  H       -6.023    -477.407     -18.962
  H       -5.710    -478.783     -20.046
  H       -0.927    -482.125     -24.275
  H       -0.388    -483.023     -22.877
  H       -0.637    -481.298     -22.764

 3  4  5  6  7  8  9  10  11  12  22  25  29  30  31  32 0
 6-311+G(2d,p)
 ****
 33  36  37 0
 6-311+G(2d,p)
 ****
 1  2  13  14  15  16  17  18  19  20  21  23  24  26 0
 3-21G
 ****
 27  28  34  35  38  39  40  41  42  43  44  45  46  47  48 0
 3-21G
 ****


