%nproc=1
%NoSave
%Mem=1900MB
#P OB98/GEN NMR

erre ene a

0 1
  C      390.852     331.673     149.481
  O      391.371     332.922     149.055
  H      391.170     331.499     150.512
  H      391.242     330.869     148.850
  H      389.758     331.688     149.439
  P      391.114     333.319     147.513
  C      391.825     335.777     148.023
  O      392.077     334.591     147.291
  C      393.057     336.676     148.006
  O      393.992     336.272     149.040
  C      393.853     336.633     146.700
  O      393.275     337.393     145.659
  C      395.168     337.241     147.177
  O      395.005     338.662     147.338
  C      395.338     336.541     148.541
  N      396.110     335.289     148.449
  C      397.443     335.345     148.868
  O      397.934     336.390     149.285
  N      398.216     334.206     148.766
  C      397.696     333.104     148.315
  N      398.514     332.013     148.239
  C      396.289     333.002     147.873
  C      395.567     334.110     147.966
  O      389.661     333.979     147.542
  O      391.277     332.216     146.519
  H      394.682     339.007     146.482
  H      389.462     334.401     146.663
  H      395.901     332.067     147.490
  H      394.521     334.114     147.667
  H      395.834     337.200     149.272
  H      395.991     337.093     146.478
  H      394.044     335.601     146.374
  H      392.738     337.700     148.242
  H      399.486     332.138     148.487
  H      391.571     335.503     149.060
  H      398.243     331.163     147.762
  H      390.977     336.319     147.583
  P      393.649     336.989     144.145
  C      391.206     337.525     143.407
  O      392.598     337.736     143.188
  O      393.200     335.457     144.063
  O      395.084     337.180     143.793
  H      393.800     334.952     143.477
  H      390.643     338.088     142.692
  H      390.948     337.844     144.395
  H      390.981     336.485     143.298

 6  7  8  9  10  11  12  13  14  15  16  26  30  31  32  33  35 0
 6-311+G(2d,p)
 ****
 37  38 0
 6-311+G(2d,p)
 ****
 1  2  3  4  5  17  18  19  20  21  22  23  24  25 0
 3-21G
 ****
 27  28  29  34  36  39  40  41  42  43  44  45  46 0
 3-21G
 ****


