%nproc=1
%NoSave
%Mem=1900MB
#P OB98/GEN NMR

erre ene a

0 1
  C      218.781     316.979    -480.897
  O      219.812     316.084    -481.267
  P      219.990     314.657    -480.540
  C      222.511     314.935    -480.025
  O      221.525     314.250    -480.780
  C      223.911     314.582    -480.533
  O      224.117     313.156    -480.358
  C      224.148     314.905    -482.016
  O      225.518     315.306    -482.146
  C      223.908     313.565    -482.691
  O      224.537     313.488    -483.968
  C      224.471     312.604    -481.646
  N      223.965     311.246    -481.795
  C      223.993     310.674    -483.072
  O      224.409     311.313    -484.036
  N      223.538     309.392    -483.227
  C      223.025     308.763    -482.218
  N      222.652     307.464    -482.412
  C      222.876     309.365    -480.879
  C      223.384     310.587    -480.740
  O      219.000     313.620    -480.949
  O      219.971     315.011    -478.985
  H      224.450     314.356    -484.407
  H      219.058     315.059    -478.607
  H      222.416     308.806    -480.072
  H      223.343     311.095    -479.783
  H      225.573     312.599    -481.685
  H      222.836     313.415    -482.833
  H      223.500     315.706    -482.385
  H      224.646     315.097    -479.907
  H      222.927     307.036    -483.285
  H      222.426     314.623    -478.981
  H      222.551     306.825    -481.624
  H      222.335     316.014    -480.075
  P      225.842     316.882    -482.237
  C      226.172     317.022    -484.801
  O      226.755     317.124    -483.532
  O      226.904     317.052    -481.038
  O      224.695     317.810    -482.027
  H      226.880     317.970    -480.719
  H      226.930     317.221    -485.557
  H      225.363     317.746    -484.920
  H      225.778     316.006    -484.967
  H      218.841     317.861    -481.499
  H      218.891     317.243    -479.866
  H      217.831     316.510    -481.046

 3  4  5  6  7  8  9  10  11  12  13  23  27  28  29  30  32 0
 6-311+G(2d,p)
 ****
 34  35 0
 6-311+G(2d,p)
 ****
 1  2  14  15  16  17  18  19  20  21  22  24  25  26 0
 3-21G
 ****
 31  33  36  37  38  39  40  41  42  43  44  45  46 0
 3-21G
 ****


