%nproc=1
%NoSave
%Mem=1900MB
#P OB98/GEN NMR

erre ene a

0 1
  C      988.384    -899.100    -862.815
  O      988.529    -899.150    -864.223
  H      987.714    -899.900    -862.480
  H      989.364    -899.250    -862.355
  H      987.993    -898.130    -862.504
  P      987.183    -898.970    -865.076
  C      988.236    -896.950    -866.316
  O      987.139    -897.440    -865.556
  C      987.844    -895.690    -867.065
  O      986.690    -896.000    -867.900
  C      987.458    -894.510    -866.157
  O      988.162    -893.320    -866.549
  C      985.974    -894.300    -866.409
  O      985.592    -892.930    -866.346
  C      985.798    -894.880    -867.808
  N      980.938    -893.340    -867.680
  C      982.092    -892.650    -867.755
  N      983.351    -893.120    -867.877
  C      983.343    -894.460    -867.973
  C      982.251    -895.310    -867.932
  C      980.988    -894.690    -867.764
  N      979.825    -895.410    -867.631
  N      982.641    -896.630    -868.046
  C      983.963    -896.580    -868.106
  N      984.423    -895.290    -868.047
  O      986.027    -899.060    -863.970
  O      986.986    -900.000    -866.149
  H      984.663    -892.880    -866.624
  H      985.451    -899.820    -864.170
  H      981.991    -891.560    -867.692
  H      984.617    -897.450    -868.139
  H      986.077    -894.170    -868.589
  H      985.417    -894.870    -865.665
  H      987.657    -894.710    -865.094
  H      988.659    -895.410    -867.735
  H      988.549    -897.730    -867.034
  H      978.985    -894.900    -867.391
  H      979.877    -896.410    -867.579
  H      989.080    -896.750    -865.632
  P      989.503    -892.980    -865.720
  C      991.011    -892.680    -867.828
  O      990.775    -893.410    -866.629
  O      989.492    -894.060    -864.544
  O      989.548    -891.600    -865.191
  H      989.527    -893.620    -863.682
  H      991.877    -893.072    -868.320
  H      991.171    -891.649    -867.592
  H      990.162    -892.770    -868.473

 6  7  8  9  10  11  12  13  14  15  25  28  32  33  34  35 0
 6-311+G(2d,p)
 ****
 36  39  40 0
 6-311+G(2d,p)
 ****
 1  2  3  4  5  16  17  18  19  20  21  22  23  24 0
 3-21G
 ****
 26  27  29  30  31  37  38  41  42  43  44  45  46  47  48 0
 3-21G
 ****


