%nproc=1
%NoSave
%Mem=1900MB
#P OB98/GEN NMR

erre ene a

0 1
  C      -54.781    -220.901     409.517
  O      -55.500    -221.320     410.683
  P      -55.370    -222.859     411.123
  C      -57.896    -223.462     410.955
  O      -56.755    -223.323     411.792
  C      -59.186    -223.592     411.778
  O      -59.140    -224.778     412.619
  C      -59.442    -222.400     412.714
  O      -60.858    -222.240     412.868
  C      -58.863    -222.882     414.030
  O      -59.363    -222.129     415.132
  C      -59.276    -224.354     413.992
  N      -59.302    -227.053     418.252
  C      -60.301    -226.297     417.672
  N      -61.498    -226.289     418.300
  N      -60.149    -225.610     416.567
  C      -58.907    -225.749     416.025
  C      -57.836    -226.457     416.511
  C      -58.011    -227.193     417.748
  O      -57.158    -227.868     418.315
  N      -56.738    -226.325     415.699
  C      -57.150    -225.532     414.726
  N      -58.467    -225.180     414.863
  O      -54.357    -222.792     412.367
  O      -54.844    -223.756     410.044
  H      -59.085    -222.593     415.955
  H      -53.499    -223.156     412.106
  H      -59.478    -227.557     419.109
  H      -56.534    -225.177     413.905
  H      -60.328    -224.500     414.294
  H      -57.767    -222.782     414.013
  H      -61.703    -226.838     419.122
  H      -59.008    -221.454     412.379
  H      -62.259    -225.780     417.874
  H      -60.028    -223.703     411.088
  H      -57.786    -224.335     410.309
  H      -57.940    -222.596     410.281
  P      -61.682    -221.756     411.577
  C      -62.711    -219.535     412.462
  O      -62.918    -220.900     412.135
  O      -62.366    -223.098     411.041
  O      -60.854    -221.086     410.530
  H      -62.557    -223.022     410.085
  H      -63.134    -218.917     411.671
  H      -61.647    -219.300     412.576
  H      -63.229    -219.318     413.398
  H      -54.958    -219.860     409.343
  H      -55.114    -221.465     408.671
  H      -53.734    -221.064     409.666

 3  4  5  6  7  8  9  10  11  12  23  26  30  31 0
 6-311+G(2d,p)
 ****
 33  35  36  37  38 0
 6-311+G(2d,p)
 ****
 1  2  13  14  15  16  17  18  19  20  21  22  24  25 0
 3-21G
 ****
 27  28  29  32  34  39  40  41  42  43  44  45  46  47  48  49 0
 3-21G
 ****


