%nproc=1
%NoSave
%Mem=1900MB
#P OB98/GEN NMR

erre ene a

0 1
  C      -56.949     -83.995    -373.107
  O      -56.628     -84.691    -374.301
  P      -57.044     -86.228    -374.516
  C      -54.914     -87.279    -373.487
  O      -56.304     -87.037    -373.344
  C      -54.584     -88.720    -373.082
  O      -54.837     -88.870    -371.659
  C      -55.409     -89.789    -373.810
  O      -54.562     -90.924    -374.000
  C      -56.513     -90.101    -372.816
  O      -57.102     -91.373    -373.036
  C      -55.752     -89.969    -371.492
  N      -56.635     -89.748    -370.355
  C      -57.137     -90.868    -369.687
  O      -56.852     -92.007    -370.066
  N      -57.950     -90.679    -368.598
  C      -58.305     -89.476    -368.256
  N      -59.065     -89.337    -367.135
  C      -57.890     -88.273    -368.999
  C      -57.047     -88.479    -370.010
  O      -56.796     -86.756    -375.885
  O      -58.568     -86.296    -374.053
  H      -57.705     -91.564    -372.291
  H      -59.204     -86.045    -374.773
  H      -58.235     -87.294    -368.695
  H      -56.670     -87.649    -370.596
  H      -55.140     -90.862    -371.314
  H      -57.301     -89.348    -372.895
  H      -55.780     -89.448    -374.783
  H      -53.509     -88.885    -373.250
  H      -59.183     -90.166    -366.561
  H      -54.371     -86.596    -372.828
  H      -59.102     -88.457    -366.637
  H      -54.609     -87.082    -374.519
  P      -54.569     -91.654    -375.432
  C      -56.058     -93.618    -374.616
  O      -55.894     -92.549    -375.524
  O      -53.427     -92.769    -375.239
  O      -54.246     -90.799    -376.615
  H      -53.056     -93.000    -376.110
  H      -57.013     -94.113    -374.820
  H      -56.072     -93.249    -373.588
  H      -55.255     -94.354    -374.738
  H      -56.583     -82.991    -373.170
  H      -56.495     -84.489    -372.273
  H      -58.011     -83.980    -372.977

 3  4  5  6  7  8  9  10  11  12  13  23  27  28  29  30  32 0
 6-311+G(2d,p)
 ****
 34  35 0
 6-311+G(2d,p)
 ****
 1  2  14  15  16  17  18  19  20  21  22  24  25  26 0
 3-21G
 ****
 31  33  36  37  38  39  40  41  42  43  44  45  46 0
 3-21G
 ****


