%nproc=1
%NoSave
%Mem=1900MB
#P OB98/GEN NMR

erre ene a

0 1
  C     -127.116    -733.975    -351.548
  O     -125.874    -733.266    -351.444
  P     -125.564    -731.948    -352.304
  C     -127.256    -730.104    -352.965
  O     -126.604    -730.788    -351.898
  C     -128.367    -729.182    -352.443
  O     -129.442    -729.950    -351.866
  C     -127.926    -728.195    -351.357
  O     -127.184    -727.132    -351.902
  C     -129.279    -727.810    -350.754
  O     -129.919    -726.781    -351.554
  C     -130.064    -729.131    -350.850
  N     -130.132    -729.831    -349.576
  C     -130.930    -729.235    -348.582
  O     -131.488    -728.164    -348.786
  N     -131.070    -729.878    -347.370
  C     -130.396    -730.968    -347.152
  N     -130.557    -731.557    -345.934
  C     -129.467    -731.580    -348.132
  C     -129.397    -730.956    -349.314
  O     -125.462    -732.178    -353.777
  O     -124.166    -731.396    -351.729
  H     -130.383    -727.237    -352.272
  H     -123.683    -730.954    -352.450
  H     -128.906    -732.466    -347.894
  H     -128.745    -731.342    -350.087
  H     -131.089    -728.944    -351.212
  H     -129.184    -727.430    -349.734
  H     -127.338    -728.729    -350.606
  H     -128.780    -728.638    -353.317
  H     -131.207    -731.128    -345.285
  H     -127.694    -730.853    -353.642
  H     -130.085    -732.414    -345.658
  H     -126.507    -729.529    -353.523
  P     -125.595    -727.243    -352.031
  C     -123.907    -728.191    -353.727
  O     -125.276    -728.089    -353.344
  O     -124.874    -727.685    -350.796
  O     -125.134    -725.754    -352.449
  H     -124.246    -725.590    -352.087
  H     -123.766    -729.078    -354.338
  H     -123.269    -728.284    -352.837
  H     -123.621    -727.310    -354.288
  H     -127.103    -734.817    -350.887
  H     -127.250    -734.313    -352.554
  H     -127.922    -733.324    -351.280

 3  4  5  6  7  8  9  10  11  12  13  23  27  28  29  30  32 0
 6-311+G(2d,p)
 ****
 34  35 0
 6-311+G(2d,p)
 ****
 1  2  14  15  16  17  18  19  20  21  22  24  25  26 0
 3-21G
 ****
 31  33  36  37  38  39  40  41  42  43  44  45  46 0
 3-21G
 ****


