%nproc=1
%NoSave
%Mem=1900MB
#P OB98/GEN NMR

erre ene a

0 1
  C     -133.977      13.220     -84.211
  O     -134.879      12.568     -85.081
  H     -133.096      13.525     -84.782
  H     -133.662      12.534     -83.421
  H     -134.437      14.109     -83.771
  P     -136.329      12.221     -84.488
  C     -137.266      10.477     -82.810
  O     -136.133      10.957     -83.518
  C     -137.444       8.981     -83.050
  O     -136.508       8.229     -82.245
  C     -138.829       8.449     -82.699
  O     -139.760       8.669     -83.751
  C     -138.527       6.969     -82.533
  O     -138.393       6.352     -83.830
  C     -137.170       7.004     -81.819
  N     -139.021       4.546     -77.791
  C     -139.145       4.263     -79.138
  N     -139.878       3.175     -79.459
  N     -138.608       4.984     -80.087
  C     -137.914       6.049     -79.619
  C     -137.715       6.431     -78.311
  C     -138.309       5.621     -77.272
  O     -138.209       5.812     -76.063
  N     -136.946       7.561     -78.229
  C     -136.694       7.874     -79.485
  N     -137.265       6.992     -80.368
  O     -137.107      11.602     -85.746
  O     -137.074      13.373     -83.903
  H     -138.187       5.412     -83.674
  H     -138.044      11.873     -85.700
  H     -139.464       3.964     -77.102
  H     -136.106       8.723     -79.806
  H     -136.526       6.165     -82.105
  H     -139.317       6.434     -82.005
  H     -140.359       2.606     -78.780
  H     -139.188       8.858     -81.747
  H     -139.956       2.929     -80.437
  H     -137.206       8.777     -84.103
  H     -138.159      11.007     -83.158
  H     -137.128      10.674     -81.742
  P     -141.323       8.619     -83.382
  C     -142.944       6.750     -82.588
  O     -141.640       7.081     -83.054
  O     -142.035       8.848     -84.797
  O     -141.762       9.612     -82.362
  H     -142.937       9.198     -84.664
  H     -143.004       5.696     -82.414
  H     -143.668       7.031     -83.324
  H     -143.141       7.274     -81.676

 6  7  8  9  10  11  12  13  14  15  26  29  33  34 0
 6-311+G(2d,p)
 ****
 36  38  39  40  41 0
 6-311+G(2d,p)
 ****
 1  2  3  4  5  16  17  18  19  20  21  22  23  24  25 0
 3-21G
 ****
 27  28  30  31  32  35  37  42  43  44  45  46  47 0
 3-21G
 ****
 48  49 0
 3-21G
 ****


