%nproc=1
%NoSave
%Mem=1900MB
#P OB98/GEN NMR

erre ene a

0 1
  C     -103.292    -209.133    -270.492
  O     -102.283    -209.955    -271.053
  P     -101.103    -209.214    -271.854
  C     -100.610    -211.258    -273.406
  O     -101.034    -209.908    -273.297
  C     -100.615    -211.680    -274.875
  O     -101.959    -211.976    -275.307
  C     -100.082    -210.624    -275.832
  O      -98.665    -210.643    -275.856
  C     -100.727    -211.048    -277.146
  O      -99.987    -212.126    -277.757
  C     -102.110    -211.526    -276.683
  N     -104.584    -208.381    -279.773
  C     -103.470    -209.162    -280.006
  N     -102.968    -209.132    -281.261
  N     -102.896    -209.907    -279.099
  C     -103.499    -209.825    -277.884
  C     -104.597    -209.081    -277.527
  C     -105.249    -208.304    -278.556
  O     -106.295    -207.676    -278.424
  N     -104.900    -209.240    -276.200
  C     -104.006    -210.107    -275.767
  N     -103.145    -210.509    -276.755
  O      -99.786    -209.727    -271.108
  O     -101.200    -207.722    -271.892
  H      -99.976    -212.889    -277.151
  H      -99.472    -209.064    -270.464
  H     -104.991    -207.846    -280.516
  H     -103.952    -210.487    -274.760
  H     -102.468    -212.385    -277.265
  H     -100.752    -210.235    -277.876
  H     -103.340    -208.565    -282.006
  H     -100.448    -209.628    -275.546
  H     -102.145    -209.693    -281.450
  H     -100.028    -212.604    -274.961
  H     -101.298    -211.895    -272.845
  H      -99.607    -211.355    -272.977
  P      -97.916    -209.356    -276.454
  C      -95.917    -210.863    -277.138
  O      -96.857    -209.885    -277.532
  O      -97.008    -208.859    -275.229
  O      -98.827    -208.275    -276.929
  H      -96.966    -207.885    -275.233
  H      -95.658    -211.471    -278.009
  H      -96.315    -211.516    -276.354
  H      -95.015    -210.371    -276.769
  H     -104.012    -209.745    -269.990
  H     -103.775    -208.580    -271.270
  H     -102.851    -208.454    -269.793

 3  4  5  6  7  8  9  10  11  12  23  26  30  31 0
 6-311+G(2d,p)
 ****
 33  35  36  37  38 0
 6-311+G(2d,p)
 ****
 1  2  13  14  15  16  17  18  19  20  21  22  24  25 0
 3-21G
 ****
 27  28  29  32  34  39  40  41  42  43  44  45  46  47  48  49 0
 3-21G
 ****


