%nproc=1
%NoSave
%Mem=1900MB
#P OB98/GEN NMR

erre ene a

0 1
  C      684.832     -16.310    -307.513
  O      683.915     -15.614    -306.665
  P      683.805     -14.018    -306.834
  C      683.907     -13.493    -304.269
  O      683.185     -13.432    -305.490
  C      682.945     -13.385    -303.060
  O      682.097     -12.220    -303.260
  C      681.995     -14.553    -302.884
  O      681.475     -14.525    -301.535
  C      680.877     -14.207    -303.846
  O      679.682     -14.920    -303.548
  C      680.780     -12.667    -303.686
  N      680.404     -11.970    -304.943
  C      679.057     -11.864    -305.258
  O      678.143     -12.325    -304.563
  N      678.750     -11.241    -306.438
  C      679.657     -10.683    -307.305
  O      679.342     -10.218    -308.395
  C      681.063     -10.683    -306.861
  C      681.352     -11.328    -305.729
  O      682.649     -13.843    -307.933
  O      685.086     -13.375    -307.277
  H      678.999     -14.604    -304.189
  H      683.040     -13.593    -308.791
  H      677.778     -11.224    -306.717
  H      681.778     -10.189    -307.485
  H      682.397     -11.350    -305.392
  H      680.045     -12.377    -302.927
  H      681.167     -14.458    -304.860
  H      682.421     -15.533    -303.085
  H      683.533     -13.212    -302.155
  H      684.660     -12.709    -304.230
  H      684.441     -14.454    -304.212
  P      682.018     -15.634    -300.500
  C      680.062     -17.176    -301.099
  O      680.749     -16.500    -300.056
  O      682.877     -15.122    -299.387
  O      682.823     -16.649    -301.462
  H      683.446     -17.190    -300.930
  H      679.602     -18.090    -300.692
  H      680.727     -17.460    -301.918
  H      679.260     -16.530    -301.473
  H      684.799     -17.356    -307.291
  H      685.822     -15.941    -307.346
  H      684.561     -16.154    -308.536

 3  4  5  6  7  8  9  10  11  12  13  23  28  29  30  31  32 0
 6-311+G(2d,p)
 ****
 33  34 0
 6-311+G(2d,p)
 ****
 1  2  14  15  16  17  18  19  20  21  22  24  25  26  27 0
 3-21G
 ****
 35  36  37  38  39  40  41  42  43  44  45 0
 3-21G
 ****


