%nproc=1
%NoSave
%Mem=1900MB
#P OB98/GEN NMR

erre ene a

0 1
  C     -574.401    -577.047    -899.070
  O     -573.549    -576.654    -898.010
  H     -574.872    -578.003    -898.840
  H     -575.177    -576.295    -899.200
  H     -573.828    -577.130    -900.000
  P     -572.309    -577.624    -897.660
  C     -570.766    -576.092    -899.080
  O     -570.989    -576.733    -897.830
  C     -570.691    -574.580    -898.880
  O     -571.980    -574.050    -898.510
  C     -569.725    -574.144    -897.760
  O     -568.387    -574.131    -898.190
  C     -570.253    -572.733    -897.500
  O     -569.785    -571.839    -898.520
  C     -571.772    -572.927    -897.600
  N     -573.735    -570.904    -893.320
  C     -573.149    -570.350    -894.410
  N     -572.651    -570.950    -895.510
  C     -572.799    -572.280    -895.410
  C     -573.378    -573.003    -894.370
  C     -573.856    -572.253    -893.280
  N     -574.441    -572.804    -892.180
  N     -573.315    -574.361    -894.620
  C     -572.753    -574.456    -895.810
  N     -572.404    -573.228    -896.320
  O     -572.255    -578.618    -898.920
  O     -572.420    -578.351    -896.360
  H     -570.187    -570.965    -898.340
  H     -571.773    -579.427    -898.680
  H     -573.059    -569.242    -894.400
  H     -572.565    -575.392    -896.330
  H     -572.273    -572.063    -898.030
  H     -569.905    -572.344    -896.530
  H     -569.855    -574.769    -896.860
  H     -570.399    -574.119    -899.840
  H     -571.595    -576.312    -899.760
  H     -574.592    -572.209    -891.380
  H     -574.401    -573.821    -892.060
  H     -569.835    -576.468    -899.530
  P     -567.265    -573.739    -897.110
  C     -567.090    -575.997    -895.840
  O     -566.495    -575.109    -896.760
  O     -568.109    -573.452    -895.780
  O     -566.394    -572.597    -897.500
  H     -567.658    -572.831    -895.190
  H     -566.462    -576.854    -895.714
  H     -568.045    -576.306    -896.210
  H     -567.214    -575.504    -894.898

 6  7  8  9  10  11  12  13  14  15  25  28  32  33  34  35 0
 6-311+G(2d,p)
 ****
 36  39  40 0
 6-311+G(2d,p)
 ****
 1  2  3  4  5  16  17  18  19  20  21  22  23  24 0
 3-21G
 ****
 26  27  29  30  31  37  38  41  42  43  44  45  46  47 0
 3-21G
 ****
 48 0
 3-21G
 ****


