%nproc=1
%NoSave
%Mem=1900MB
#P OB98/GEN NMR

erre ene a

0 1
  C     -273.250     407.320    -272.393
  O     -272.748     406.064    -271.970
  P     -272.925     405.681    -270.420
  C     -275.112     404.386    -270.976
  O     -274.494     405.420    -270.213
  C     -276.145     403.647    -270.128
  O     -275.486     402.700    -269.268
  C     -276.954     404.545    -269.212
  O     -277.956     405.222    -269.934
  C     -277.488     403.535    -268.201
  O     -278.712     402.943    -268.669
  C     -276.355     402.485    -268.135
  N     -275.619     402.542    -266.881
  C     -276.249     401.936    -265.781
  O     -277.363     401.425    -265.909
  N     -275.613     401.972    -264.562
  C     -274.460     402.551    -264.454
  N     -273.878     402.552    -263.224
  C     -273.778     403.215    -265.578
  C     -274.409     403.176    -266.752
  O     -272.676     407.072    -269.674
  O     -272.012     404.603    -269.936
  H     -279.358     403.680    -268.722
  H     -272.352     406.927    -268.767
  H     -272.815     403.692    -265.435
  H     -273.979     403.640    -267.635
  H     -276.768     401.474    -268.243
  H     -277.716     404.005    -267.240
  H     -276.293     405.261    -268.702
  H     -276.808     403.086    -270.806
  H     -274.373     402.094    -262.468
  H     -274.347     403.672    -271.307
  H     -272.975     402.962    -263.039
  H     -275.583     404.830    -271.860
  P     -278.681     406.463    -269.223
  C     -276.638     407.845    -269.914
  O     -277.496     407.479    -268.855
  O     -279.057     405.854    -267.788
  O     -279.863     407.051    -269.916
  H     -279.600     406.492    -267.290
  H     -275.979     408.649    -269.568
  H     -277.213     408.208    -270.766
  H     -276.014     406.997    -270.211
  H     -273.066     407.443    -273.440
  H     -272.760     408.101    -271.850
  H     -274.303     407.364    -272.209

 3  4  5  6  7  8  9  10  11  12  13  21  23  27  28  29  30  32 0
 6-311+G(2d,p)
 ****
 34  35 0
 6-311+G(2d,p)
 ****
 1  2  14  15  16  17  18  19  20  22  24  25  26 0
 3-21G
 ****
 31  33  36  37  38  39  40  41  42  43  44  45  46 0
 3-21G
 ****


