%nproc=1
%NoSave
%Mem=1900MB
#P OB98/GEN NMR

erre ene a

0 1
  C     -893.810    -149.456    2182.021
  O     -893.110    -150.389    2182.819
  H     -894.480    -150.012    2181.354
  H     -893.120    -148.874    2181.421
  H     -894.420    -148.793    2182.644
  P     -892.190    -149.837    2184.011
  C     -893.680    -151.214    2185.623
  O     -893.070    -149.952    2185.359
  C     -895.170    -151.177    2185.226
  O     -895.270    -150.954    2183.798
  C     -895.930    -152.475    2185.543
  O     -897.290    -152.128    2185.805
  C     -895.800    -153.216    2184.220
  O     -896.640    -154.342    2184.141
  C     -896.070    -152.051    2183.265
  N     -895.710    -152.304    2181.869
  C     -896.770    -152.496    2180.963
  O     -897.960    -152.471    2181.280
  N     -896.400    -152.735    2179.668
  C     -895.130    -152.771    2179.187
  O     -894.860    -152.973    2178.010
  C     -894.070    -152.565    2180.182
  C     -894.400    -152.342    2181.448
  O     -891.560    -148.504    2183.800
  O     -891.090    -150.986    2184.213
  H     -890.260    -150.712    2183.794
  H     -896.370    -154.899    2183.388
  H     -897.150    -152.883    2179.000
  H     -893.040    -152.603    2179.823
  H     -893.640    -152.179    2182.216
  H     -897.120    -151.737    2183.313
  H     -894.780    -153.606    2184.108
  H     -895.530    -153.024    2186.411
  H     -895.650    -150.312    2185.708
  H     -893.590    -151.398    2186.700
  H     -893.160    -151.991    2185.060
  P     -897.930    -152.103    2187.273
  C     -898.070    -149.537    2187.761
  O     -897.400    -150.770    2188.038
  O     -897.710    -153.346    2188.055
  O     -899.500    -151.814    2187.058
  H     -900.000    -152.182    2187.818
  H     -897.619    -148.751    2188.330
  H     -899.102    -149.624    2188.029
  H     -897.990    -149.314    2186.718

 6  7  8  9  10  11  12  13  14  15  16  27  31  32  33  34  35 0
 6-311+G(2d,p)
 ****
 36  37 0
 6-311+G(2d,p)
 ****
 1  2  3  4  5  17  18  19  20  21  22  23  24  25 0
 3-21G
 ****
 26  28  29  30  38  39  40  41  42  43  44  45 0
 3-21G
 ****


