%nproc=1
%NoSave
%Mem=1900MB
#P OB98/GEN NMR

erre ene a

0 1
  C     -259.595     226.926    -125.986
  O     -259.419     226.609    -127.353
  P     -260.192     225.329    -127.929
  C     -258.289     223.650    -127.321
  O     -259.643     224.047    -127.140
  C     -258.183     222.125    -127.227
  O     -258.830     221.648    -126.029
  C     -258.866     221.395    -128.377
  O     -258.065     221.404    -129.547
  C     -259.060     220.004    -127.787
  O     -257.866     219.216    -127.919
  C     -259.340     220.327    -126.304
  N     -260.755     220.209    -125.958
  C     -261.115     219.062    -125.255
  O     -260.306     218.180    -124.952
  N     -262.440     218.941    -124.945
  C     -263.433     219.805    -125.308
  O     -264.614     219.617    -125.047
  C     -262.998     220.987    -126.076
  C     -261.700     221.126    -126.366
  O     -259.598     225.150    -129.405
  O     -261.679     225.456    -127.941
  H     -258.074     218.333    -127.550
  H     -260.298     224.832    -130.009
  H     -262.719     218.131    -124.413
  H     -263.757     221.694    -126.381
  H     -261.362     221.981    -126.945
  H     -258.771     219.643    -125.655
  H     -259.866     219.454    -128.282
  H     -259.850     221.841    -128.573
  H     -257.121     221.852    -127.176
  H     -257.670     224.112    -126.549
  H     -257.942     223.999    -128.298
  P     -258.830     221.529    -130.954
  C     -258.757     218.978    -131.530
  O     -259.533     220.103    -131.171
  O     -257.590     221.545    -131.969
  O     -259.718     222.724    -131.030
  H     -256.847     221.008    -131.645
  H     -257.772     219.002    -131.054
  H     -258.637     218.953    -132.615
  H     -259.283     218.073    -131.211
  H     -259.023     227.798    -125.746
  H     -259.265     226.105    -125.384
  H     -260.631     227.115    -125.794

 3  4  5  6  7  8  9  10  11  12  13  23  28  29  30  31  32 0
 6-311+G(2d,p)
 ****
 33  34 0
 6-311+G(2d,p)
 ****
 1  2  14  15  16  17  18  19  20  21  22  24  25  26 0
 3-21G
 ****
 27  35  36  37  38  39  40  41  42  43  44  45 0
 3-21G
 ****


