%nproc=1
%NoSave
%Mem=1900MB
#P OB98/GEN NMR

erre ene a

0 1
  C     1284.762     263.136    -463.785
  O     1285.847     262.312    -464.169
  H     1284.173     262.605    -463.027
  H     1284.120     263.348    -464.640
  H     1285.134     264.068    -463.354
  P     1286.818     262.888    -465.309
  C     1285.540     261.733    -467.240
  O     1286.744     261.807    -466.485
  C     1285.719     260.814    -468.449
  O     1286.703     261.362    -469.345
  C     1286.182     259.406    -468.104
  O     1285.077     258.606    -467.720
  C     1286.766     258.956    -469.435
  O     1285.702     258.531    -470.310
  C     1287.399     260.253    -469.982
  N     1292.114     259.152    -471.703
  C     1290.893     258.701    -472.073
  N     1289.685     258.995    -471.539
  C     1289.818     259.856    -470.511
  C     1290.994     260.389    -470.003
  C     1292.189     260.010    -470.660
  N     1293.430     260.465    -470.274
  N     1290.737     261.236    -468.944
  C     1289.421     261.245    -468.853
  N     1288.828     260.397    -469.750
  O     1288.184     263.282    -464.856
  O     1285.927     264.089    -465.886
  H     1285.064     259.279    -470.366
  H     1284.988     263.819    -465.951
  H     1290.893     258.014    -472.913
  H     1288.858     261.870    -468.159
  H     1287.239     260.347    -471.062
  H     1287.450     258.112    -469.332
  H     1286.972     259.406    -467.345
  H     1284.756     260.796    -468.994
  H     1285.244     262.738    -467.575
  H     1294.235     259.997    -470.655
  H     1293.497     260.999    -469.411
  H     1284.754     261.352    -466.576
  P     1285.234     257.389    -466.671
  C     1286.951     256.016    -468.020
  O     1285.595     256.117    -467.569
  O     1284.085     257.242    -465.733
  O     1286.619     257.710    -465.927
  H     1286.661     257.184    -465.092
  H     1287.066     255.129    -468.607
  H     1287.606     255.972    -467.175
  H     1287.194     256.872    -468.615

 6  7  8  9  10  11  12  13  14  15  25  28  32  33  34  35 0
 6-311+G(2d,p)
 ****
 36  39  40 0
 6-311+G(2d,p)
 ****
 1  2  3  4  5  16  17  18  19  20  21  22  23  24 0
 3-21G
 ****
 26  27  29  30  31  37  38  41  42  43  44  45  46  47 0
 3-21G
 ****
 48 0
 3-21G
 ****


