%nproc=1
%NoSave
%Mem=1900MB
#P OB98/GEN NMR

erre ene a

0 1
  C       -2.668      -1.000      71.594
  O       -3.514      -1.885      72.309
  P       -4.842      -1.355      73.023
  C       -4.743      -1.398      75.646
  O       -4.440      -0.736      74.437
  C       -3.710      -2.508      75.879
  O       -2.375      -1.987      75.715
  C       -3.819      -3.093      77.285
  O       -4.638      -4.252      77.282
  C       -2.372      -3.375      77.640
  O       -1.946      -4.623      77.062
  C       -1.647      -2.191      76.957
  N       -1.594      -0.902      77.672
  C       -0.998      -0.837      78.928
  O       -0.474      -1.796      79.486
  N       -1.047       0.388      79.547
  C       -1.581       1.528      79.017
  O       -1.835       2.538      79.663
  C       -1.942       1.458      77.599
  C       -1.954       0.263      77.008
  O       -5.607      -2.705      73.413
  O       -5.694      -0.445      72.200
  H       -2.188      -4.599      76.119
  H       -6.300      -2.908      72.758
  H       -0.743       0.408      80.515
  H       -2.237       2.370      77.098
  H       -2.255       0.180      75.966
  H       -0.617      -2.460      76.697
  H       -2.244      -3.479      78.716
  H       -4.210      -2.338      77.980
  H       -3.859      -3.294      75.126
  H       -5.753      -1.820      75.600
  H       -4.728      -0.687      76.479
  P       -5.172      -4.844      78.669
  C       -4.015      -7.057      79.249
  O       -3.930      -5.646      79.292
  O       -6.454      -5.606      78.593
  O       -5.307      -3.544      79.597
  H       -6.236      -3.235      79.602
  H       -3.046      -7.475      79.532
  H       -4.269      -7.396      78.241
  H       -4.771      -7.403      79.959
  H       -1.839      -1.545      71.194
  H       -2.309      -0.238      72.254
  H       -3.218      -0.549      70.795

 3  4  5  6  7  8  9  10  11  12  13  23  28  29  30  31  32 0
 6-311+G(2d,p)
 ****
 33  34 0
 6-311+G(2d,p)
 ****
 1  2  14  15  16  17  18  19  20  21  22  24  25  26  27 0
 3-21G
 ****
 35  36  37  38  39  40  41  42  43  44  45 0
 3-21G
 ****


