%nproc=1
%NoSave
%Mem=1900MB
#P OB98/GEN NMR

erre ene a

0 1
  C      274.415     412.046     402.619
  O      273.528     411.570     403.608
  P      273.136     412.505     404.849
  C      274.861     411.065     406.099
  O      274.289     412.367     405.954
  C      276.384     411.173     406.202
  O      276.892     412.120     405.235
  C      276.881     411.658     407.558
  O      276.811     410.628     408.526
  C      278.296     412.114     407.204
  O      279.192     410.994     407.168
  C      278.099     412.684     405.792
  N      280.199     416.953     403.934
  C      280.599     415.655     403.897
  N      280.006     414.582     404.446
  C      278.893     414.947     405.115
  C      278.388     416.230     405.272
  C      279.075     417.266     404.622
  N      278.647     418.571     404.598
  N      277.240     416.203     406.051
  C      277.082     414.930     406.373
  N      278.014     414.128     405.773
  O      271.747     412.331     405.359
  O      273.352     413.991     404.292
  H      279.170     410.576     408.051
  H      272.502     414.475     404.321
  H      281.515     415.466     403.341
  H      276.294     414.548     407.011
  H      278.920     412.398     405.120
  H      278.700     412.835     407.922
  H      276.293     412.531     407.880
  H      276.812     410.182     405.967
  H      274.588     410.466     405.225
  H      279.139     419.205     403.984
  H      277.678     418.767     404.837
  H      274.453     410.588     406.995
  P      275.986     410.856     409.874
  C      278.288     411.051     410.980
  O      276.972     411.567     410.912
  O      275.259     409.660     410.398
  O      274.961     412.032     409.491
  H      274.124     411.915     409.994
  H      278.286     410.125     411.566
  H      278.927     411.781     411.480
  H      278.685     410.851     409.986
  H      274.558     411.290     401.875
  H      275.356     412.286     403.069
  H      274.004     412.922     402.163

 3  4  5  6  7  8  9  10  11  12  22  25  29  30  31  32 0
 6-311+G(2d,p)
 ****
 33  36  37 0
 6-311+G(2d,p)
 ****
 1  2  13  14  15  16  17  18  19  20  21  23  24  26 0
 3-21G
 ****
 27  28  34  35  38  39  40  41  42  43  44  45  46  47  48 0
 3-21G
 ****


