%nproc=1
%NoSave
%Mem=1900MB
#P OB98/GEN NMR

erre ene a

0 1
  C       74.603    -182.528    -427.093
  O       73.561    -182.407    -428.047
  P       73.360    -181.061    -428.903
  C       71.922    -180.115    -426.972
  O       73.035    -179.916    -427.826
  C       71.070    -178.841    -426.909
  O       71.946    -177.710    -426.669
  C       70.275    -178.546    -428.187
  O       69.039    -177.951    -427.794
  C       71.152    -177.538    -428.909
  O       70.431    -176.759    -429.848
  C       71.716    -176.749    -427.719
  N       72.939    -176.033    -428.052
  C       72.822    -174.799    -428.699
  O       71.714    -174.347    -428.999
  N       73.962    -174.096    -428.998
  C       75.127    -174.618    -428.750
  N       76.227    -173.858    -429.010
  C       75.302    -175.962    -428.170
  C       74.178    -176.591    -427.826
  O       72.372    -181.166    -430.012
  O       74.832    -180.664    -429.372
  H       71.048    -176.116    -430.249
  H       75.114    -181.125    -430.205
  H       76.293    -176.367    -428.006
  H       74.209    -177.576    -427.369
  H       70.966    -176.045    -427.343
  H       71.947    -178.063    -429.446
  H       70.068    -179.449    -428.778
  H       70.390    -178.926    -426.046
  H       76.061    -172.885    -429.243
  H       72.289    -180.339    -425.967
  H       77.112    -174.046    -428.555
  H       71.330    -180.964    -427.325
  P       67.666    -178.652    -428.251
  C       67.340    -176.957    -430.192
  O       67.429    -178.310    -429.800
  O       66.565    -177.725    -427.531
  O       67.481    -180.073    -427.837
  H       65.754    -178.248    -427.391
  H       67.182    -176.912    -431.275
  H       68.266    -176.426    -429.953
  H       66.492    -176.468    -429.702
  H       74.560    -183.496    -426.638
  H       74.488    -181.775    -426.341
  H       75.548    -182.404    -427.579

 3  4  5  6  7  8  9  10  11  12  13  23  27  28  29  30  32 0
 6-311+G(2d,p)
 ****
 34  35 0
 6-311+G(2d,p)
 ****
 1  2  14  15  16  17  18  19  20  21  22  24  25  26 0
 3-21G
 ****
 31  33  36  37  38  39  40  41  42  43  44  45  46 0
 3-21G
 ****


