%nproc=1
%NoSave
%Mem=1900MB
#P OB98/GEN NMR

erre ene a

0 1
  C     -195.825     734.836    -391.653
  O     -196.349     734.120    -390.527
  P     -197.053     734.972    -389.370
  C     -199.243     733.633    -388.989
  O     -197.962     733.990    -388.482
  C     -199.138     732.570    -390.090
  O     -198.358     731.426    -389.630
  C     -200.490     732.027    -390.552
  O     -200.380     731.649    -391.925
  C     -200.642     730.765    -389.715
  O     -201.611     729.881    -390.269
  C     -199.198     730.261    -389.722
  N     -200.446     725.806    -387.705
  C     -200.947     726.453    -388.818
  N     -201.895     725.799    -389.519
  N     -200.546     727.634    -389.210
  C     -199.567     728.155    -388.433
  C     -198.997     727.619    -387.301
  C     -199.467     726.322    -386.862
  O     -199.070     725.711    -385.875
  N     -198.054     728.463    -386.768
  C     -198.059     729.507    -387.581
  N     -198.933     729.353    -388.618
  O     -198.126     735.849    -390.177
  O     -196.114     735.843    -388.598
  H     -201.266     729.576    -391.135
  H     -197.839     736.775    -390.202
  H     -200.792     724.902    -387.440
  H     -197.452     730.393    -387.461
  H     -198.950     729.724    -390.643
  H     -200.963     731.029    -388.702
  H     -202.208     724.867    -389.299
  H     -201.330     732.715    -390.432
  H     -202.246     726.232    -390.366
  H     -198.603     733.000    -390.944
  H     -199.751     734.515    -389.389
  H     -199.864     733.281    -388.154
  P     -200.768     732.753    -393.016
  C     -199.119     732.574    -395.007
  O     -200.337     732.159    -394.442
  O     -199.708     733.929    -392.764
  O     -202.178     733.255    -392.930
  H     -200.071     734.783    -393.067
  H     -198.374     731.780    -394.881
  H     -198.734     733.492    -394.541
  H     -199.261     732.755    -396.068
  H     -195.386     734.145    -392.342
  H     -195.081     735.529    -391.320
  H     -196.617     735.369    -392.137

 3  4  5  6  7  8  9  10  11  12  23  26  30  31 0
 6-311+G(2d,p)
 ****
 33  35  36  37  38 0
 6-311+G(2d,p)
 ****
 1  2  13  14  15  16  17  18  19  20  21  22  24  25 0
 3-21G
 ****
 27  28  29  32  34  39  40  41  42  43  44  45  46  47  48  49 0
 3-21G
 ****


