%nproc=1
%NoSave
%Mem=1900MB
#P OB98/GEN NMR

erre ene a

0 1
  C        6.205    -839.355     973.275
  O        5.752    -839.085     971.943
  P        4.480    -838.113     971.749
  C        5.701    -835.914     971.048
  O        4.948    -836.603     972.040
  C        4.824    -834.876     970.335
  O        4.234    -833.948     971.274
  C        5.589    -834.015     969.353
  O        5.749    -834.679     968.100
  C        4.647    -832.838     969.202
  O        3.570    -833.170     968.301
  C        4.110    -832.661     970.621
  N        4.821    -827.647     971.416
  C        4.057    -828.321     970.524
  N        3.941    -829.658     970.363
  C        4.693    -830.313     971.252
  C        5.528    -829.763     972.227
  C        5.577    -828.356     972.289
  N        6.354    -827.669     973.196
  N        6.148    -830.754     972.938
  C        5.703    -831.873     972.437
  N        4.830    -831.668     971.404
  O        3.568    -838.473     973.012
  O        3.763    -838.329     970.460
  H        3.965    -833.274     967.409
  H        2.628    -838.395     972.765
  H        3.461    -827.705     969.840
  H        5.977    -832.869     972.788
  H        3.051    -832.382     970.639
  H        5.144    -831.945     968.784
  H        6.553    -833.690     969.768
  H        4.021    -835.407     969.820
  H        6.091    -836.631     970.322
  H        6.310    -826.670     973.205
  H        6.898    -828.203     973.868
  H        6.564    -835.449     971.530
  P        7.168    -835.388     967.819
  C        6.675    -837.873     968.425
  O        7.229    -836.634     968.833
  O        8.222    -834.342     968.433
  O        7.437    -835.690     966.381
  H        9.059    -834.397     967.942
  H        7.061    -838.659     969.077
  H        6.938    -838.106     967.398
  H        5.585    -837.838     968.528
  H        7.050    -840.011     973.238
  H        5.418    -839.818     973.832
  H        6.486    -838.438     973.749

 3  4  5  6  7  8  9  10  11  12  22  25  29  30  31  32 0
 6-311+G(2d,p)
 ****
 33  36  37 0
 6-311+G(2d,p)
 ****
 1  2  13  14  15  16  17  18  19  20  21  23  24  26 0
 3-21G
 ****
 27  28  34  35  38  39  40  41  42  43  44  45  46  47  48 0
 3-21G
 ****


