%nproc=1
%NoSave
%Mem=1900MB
#P OB98/GEN NMR

erre ene a

0 1
  C      -33.004     106.563    -303.493
  O      -34.329     106.305    -303.078
  H      -32.320     105.977    -302.874
  H      -32.771     107.624    -303.371
  H      -32.872     106.271    -304.541
  P      -35.490     107.095    -303.857
  C      -35.749     108.809    -301.926
  O      -35.453     108.603    -303.299
  C      -35.798     110.301    -301.611
  O      -34.498     110.908    -301.805
  C      -36.779     111.094    -302.465
  O      -38.097     111.000    -301.953
  C      -36.204     112.501    -302.352
  O      -36.598     113.134    -301.118
  C      -34.692     112.229    -302.370
  N      -32.643     115.322    -305.793
  C      -33.091     115.581    -304.515
  N      -33.032     116.870    -304.110
  N      -33.563     114.669    -303.711
  C      -33.593     113.431    -304.265
  C      -33.162     113.045    -305.515
  C      -32.611     114.064    -306.385
  O      -32.133     113.889    -307.502
  N      -33.335     111.699    -305.706
  C      -33.908     111.280    -304.591
  N      -34.099     112.299    -303.695
  O      -36.837     106.506    -303.220
  O      -35.476     106.956    -305.340
  H      -37.542     113.365    -301.165
  H      -37.542     106.523    -303.895
  H      -32.274     116.066    -306.360
  H      -34.200     110.258    -304.390
  H      -34.142     112.938    -301.740
  H      -36.554     113.145    -303.160
  H      -33.000     117.635    -304.771
  H      -36.736     110.768    -303.512
  H      -33.380     117.071    -303.181
  H      -36.045     110.405    -300.546
  H      -34.968     108.340    -301.319
  H      -36.712     108.344    -301.689
  P      -39.306     110.931    -303.007
  C      -40.355     113.260    -302.510
  O      -39.629     112.448    -303.423
  O      -40.563     110.524    -302.106
  O      -39.091     109.982    -304.142
  H      -41.285     110.189    -302.673
  H      -40.489     114.235    -302.929
  H      -39.811     113.338    -301.592
  H      -41.311     112.818    -302.322

 6  7  8  9  10  11  12  13  14  15  26  29  33  34 0
 6-311+G(2d,p)
 ****
 36  38  39  40  41 0
 6-311+G(2d,p)
 ****
 1  2  3  4  5  16  17  18  19  20  21  22  23  24  25 0
 3-21G
 ****
 27  28  30  31  32  35  37  42  43  44  45  46  47 0
 3-21G
 ****
 48  49 0
 3-21G
 ****


