%nproc=1
%NoSave
%Mem=1900MB
#P OB98/GEN NMR

erre ene a

0 1
  C      418.584      85.305     -70.989
  O      417.210      85.323     -70.657
  H      419.109      86.016     -70.349
  H      418.717      85.605     -72.032
  H      419.002      84.309     -70.830
  P      416.262      84.278     -71.423
  C      416.719      82.173     -69.980
  O      415.800      83.199     -70.327
  C      416.301      81.479     -68.681
  O      416.793      82.269     -67.552
  C      414.783      81.322     -68.508
  O      414.538      80.091     -67.826
  C      414.430      82.467     -67.564
  O      413.199      82.252     -66.876
  C      415.670      82.468     -66.672
  N      415.684      84.373     -62.009
  C      415.581      83.067     -62.444
  N      415.465      82.116     -61.495
  N      415.593      82.717     -63.705
  C      415.750      83.768     -64.546
  C      415.853      85.108     -64.245
  C      415.811      85.476     -62.848
  O      415.879      86.620     -62.401
  N      415.969      85.862     -65.386
  C      415.933      84.984     -66.375
  N      415.802      83.700     -65.917
  O      417.300      83.470     -72.336
  O      415.161      84.884     -72.226
  H      412.476      82.309     -67.535
  H      417.352      83.872     -73.224
  H      415.657      84.589     -61.027
  H      415.997      85.223     -67.426
  H      415.656      81.651     -65.937
  H      414.350      83.409     -68.125
  H      415.494      82.301     -60.502
  H      414.214      81.351     -69.443
  H      415.435      81.149     -61.792
  H      416.802      80.507     -68.625
  H      417.715      82.613     -69.848
  H      416.764      81.438     -70.795
  P      413.275      79.215     -68.281
  C      414.411      76.920     -67.843
  O      413.345      77.807     -67.524
  O      413.634      78.832     -69.790
  O      411.967      79.935     -68.186
  H      412.814      78.698     -70.307
  H      414.320      76.028     -67.258
  H      415.346      77.394     -67.628
  H      414.369      76.671     -68.883

 6  7  8  9  10  11  12  13  14  15  26  29  33  34 0
 6-311+G(2d,p)
 ****
 36  38  39  40  41 0
 6-311+G(2d,p)
 ****
 1  2  3  4  5  16  17  18  19  20  21  22  23  24  25 0
 3-21G
 ****
 27  28  30  31  32  35  37  42  43  44  45  46  47 0
 3-21G
 ****
 48  49 0
 3-21G
 ****


