%nproc=1
%NoSave
%Mem=1900MB
#P OB98/GEN NMR

erre ene a

0 1
  C      248.110      95.901     -69.266
  O      247.952      97.300     -69.367
  H      247.725      95.574     -68.298
  H      249.170      95.644     -69.327
  H      247.556      95.383     -70.053
  P      248.162      98.004     -70.790
  C      247.432      97.511     -73.214
  O      247.280      97.173     -71.842
  C      246.518      96.651     -74.091
  O      246.839      95.247     -73.867
  C      245.020      96.832     -73.802
  O      244.316      96.611     -75.030
  C      244.756      95.697     -72.831
  O      243.378      95.414     -72.726
  C      245.631      94.595     -73.435
  N      245.895      93.511     -72.488
  C      244.996      92.452     -72.489
  O      244.000      92.413     -73.210
  N      245.250      91.447     -71.596
  C      246.260      91.435     -70.679
  O      246.423      90.520     -69.879
  C      247.156      92.603     -70.694
  C      246.938      93.571     -71.587
  O      249.580      98.223     -71.200
  O      247.356      99.382     -70.673
  H      243.223      94.732     -72.037
  H      247.775     100.064     -71.231
  H      244.613      90.668     -71.589
  H      247.961      92.626     -69.972
  H      247.580      94.444     -71.625
  H      245.148      94.159     -74.318
  H      245.112      95.957     -71.826
  H      244.778      97.814     -73.391
  H      246.744      96.863     -75.144
  H      248.478      97.346     -73.489
  H      247.192      98.571     -73.356
  P      243.764      97.820     -75.927
  C      244.932     100.016     -76.599
  O      245.012      98.593     -76.575
  O      242.794      98.712     -75.221
  O      243.072      97.113     -77.185
  H      242.359      97.682     -77.532
  H      245.816     100.415     -77.051
  H      244.845     100.385     -75.598
  H      244.075     100.316     -77.165

 6  7  8  9  10  11  12  13  14  15  16  26  31  32  33  34  35 0
 6-311+G(2d,p)
 ****
 36  37 0
 6-311+G(2d,p)
 ****
 1  2  3  4  5  17  18  19  20  21  22  23  24  25 0
 3-21G
 ****
 27  28  29  30  38  39  40  41  42  43  44  45 0
 3-21G
 ****


