%nproc=1
%NoSave
%Mem=1900MB
#P OB98/GEN NMR

erre ene a

0 1
  C      494.766      28.941      70.768
  O      493.633      29.175      71.578
  H      494.687      27.939      70.337
  H      495.676      28.988      71.373
  H      494.822      29.668      69.955
  P      493.408      30.642      72.186
  C      494.290      30.733      74.613
  O      494.593      30.897      73.234
  C      495.211      31.602      75.478
  O      496.559      31.037      75.430
  C      495.321      33.070      75.014
  O      495.567      33.863      76.188
  C      496.549      32.997      74.124
  O      497.040      34.267      73.776
  C      497.440      32.097      74.996
  N      498.615      31.552      74.333
  C      499.767      32.335      74.312
  O      499.861      33.455      74.813
  N      500.846      31.785      73.671
  C      500.890      30.554      73.078
  O      501.899      30.107      72.543
  C      499.642      29.779      73.127
  C      498.582      30.301      73.746
  O      492.036      30.926      72.702
  O      493.795      31.616      70.974
  H      492.982      31.951      70.550
  H      496.367      34.730      73.229
  H      501.689      32.335      73.649
  H      499.640      28.804      72.657
  H      497.646      29.748      73.811
  H      497.749      32.641      75.894
  H      496.297      32.506      73.183
  H      494.419      33.430      74.517
  H      494.878      31.540      76.521
  H      494.423      29.678      74.872
  H      493.243      31.012      74.784
  P      494.401      34.457      77.116
  C      494.732      37.009      76.807
  O      493.940      35.865      76.497
  O      494.758      34.527      78.564
  O      493.139      33.497      76.874
  H      492.562      33.515      77.662
  H      494.313      37.872      76.333
  H      495.731      36.858      76.454
  H      494.746      37.156      77.867

 6  7  8  9  10  11  12  13  14  15  16  27  31  32  33  34  35 0
 6-311+G(2d,p)
 ****
 36  37 0
 6-311+G(2d,p)
 ****
 1  2  3  4  5  17  18  19  20  21  22  23  24  25 0
 3-21G
 ****
 26  28  29  30  38  39  40  41  42  43  44  45 0
 3-21G
 ****


