%nproc=1
%NoSave
%Mem=1900MB
#P OB98/GEN NMR

erre ene a

0 1
  C      290.694     382.104     550.633
  O      290.619     382.643     551.956
  P      291.953     383.304     552.567
  C      292.731     381.053     553.636
  O      292.416     382.432     553.829
  C      293.731     380.589     554.702
  O      295.015     381.208     554.521
  C      293.304     380.952     556.112
  O      292.299     380.068     556.588
  C      294.625     380.850     556.875
  O      294.835     379.529     557.399
  C      295.674     381.188     555.799
  N      296.364     382.453     556.051
  C      297.761     382.363     556.124
  O      298.339     381.287     555.995
  N      298.468     383.528     556.363
  C      297.838     384.646     556.551
  N      298.589     385.747     556.782
  C      296.363     384.754     556.510
  C      295.690     383.630     556.257
  O      291.428     384.665     553.222
  O      293.019     383.558     551.546
  H      294.038     379.326     557.933
  H      292.099     385.355     553.161
  H      295.872     385.706     556.676
  H      294.611     383.619     556.214
  H      296.431     380.396     555.748
  H      294.644     381.526     557.738
  H      292.941     381.988     556.140
  H      293.836     379.499     554.615
  H      299.593     385.638     556.803
  H      293.151     380.905     552.640
  H      298.203     386.675     556.949
  H      291.807     380.479     553.679
  P      290.775     380.440     556.279
  C      290.789     381.797     558.466
  O      290.137     380.778     557.708
  O      290.129     379.004     555.966
  O      290.512     381.421     555.180
  H      289.212     379.113     555.665
  H      290.138     382.067     559.301
  H      290.956     382.680     557.848
  H      291.736     381.417     558.859
  H      289.742     381.701     550.358
  H      291.431     381.329     550.605
  H      290.965     382.879     549.947

 3  4  5  6  7  8  9  10  11  12  13  21  23  27  28  29  30  32 0
 6-311+G(2d,p)
 ****
 34  35 0
 6-311+G(2d,p)
 ****
 1  2  14  15  16  17  18  19  20  22  24  25  26 0
 3-21G
 ****
 31  33  36  37  38  39  40  41  42  43  44  45  46 0
 3-21G
 ****


