%nproc=1
%NoSave
%Mem=1900MB
#P OB98/GEN NMR

erre ene a

0 1
  C      -92.301    1214.724    -311.453
  O      -91.474    1215.460    -312.341
  P      -91.435    1217.059    -312.098
  C      -89.179    1216.818    -310.863
  O      -90.490    1217.350    -310.840
  C      -88.350    1217.284    -309.676
  O      -88.303    1218.741    -309.617
  C      -88.878    1216.815    -308.308
  O      -87.755    1216.575    -307.458
  C      -89.653    1218.002    -307.821
  O      -89.864    1217.940    -306.406
  C      -88.724    1219.133    -308.284
  N      -89.447    1223.380    -305.618
  C      -88.853    1222.190    -305.265
  N      -88.329    1222.149    -304.000
  N      -88.788    1221.149    -306.042
  C      -89.318    1221.354    -307.267
  C      -89.923    1222.490    -307.770
  C      -90.005    1223.625    -306.869
  O      -90.553    1224.698    -307.143
  N      -90.320    1222.326    -309.070
  C      -89.991    1221.063    -309.332
  N      -89.343    1220.437    -308.300
  O      -92.917    1217.364    -311.546
  O      -91.139    1217.852    -313.336
  H      -89.842    1218.848    -306.056
  H      -93.474    1217.730    -312.253
  H      -89.500    1224.161    -304.977
  H      -90.212    1220.550    -310.252
  H      -87.838    1219.221    -307.654
  H      -90.626    1218.096    -308.296
  H      -88.318    1222.927    -303.370
  H      -89.507    1215.901    -308.360
  H      -87.841    1221.289    -303.726
  H      -87.312    1216.913    -309.812
  H      -88.679    1217.132    -311.799
  H      -89.235    1215.718    -310.927
  P      -87.584    1215.128    -306.808
  C      -85.298    1214.336    -307.742
  O      -86.703    1214.257    -307.817
  O      -89.073    1214.510    -306.954
  O      -87.136    1215.143    -305.398
  H      -89.272    1213.987    -306.142
  H      -84.880    1213.422    -308.141
  H      -84.968    1214.519    -306.735
  H      -84.970    1215.168    -308.397
  H      -92.254    1213.684    -311.701
  H      -93.311    1215.066    -311.540
  H      -91.962    1214.867    -310.448

 3  4  5  6  7  8  9  10  11  12  23  26  30  31 0
 6-311+G(2d,p)
 ****
 33  35  36  37  38 0
 6-311+G(2d,p)
 ****
 1  2  13  14  15  16  17  18  19  20  21  22  24  25 0
 3-21G
 ****
 27  28  29  32  34  39  40  41  42  43  44  45  46  47  48  49 0
 3-21G
 ****


