%nproc=1
%NoSave
%Mem=1900MB
#P OB98/GEN NMR

erre ene a

0 1
  C     -450.768     -76.887     -58.653
  O     -451.443     -77.252     -59.841
  H     -450.208     -75.963     -58.836
  H     -450.068     -77.672     -58.361
  H     -451.488     -76.707     -57.846
  P     -452.329     -78.593     -59.786
  C     -453.723     -77.953     -61.886
  O     -452.803     -78.876     -61.300
  C     -453.765     -78.144     -63.404
  O     -452.514     -77.656     -63.974
  C     -453.931     -79.602     -63.850
  O     -454.774     -79.643     -65.000
  C     -452.521     -80.004     -64.253
  O     -452.516     -81.099     -65.163
  C     -452.015     -78.688     -64.839
  N     -448.020     -80.929     -66.930
  C     -449.368     -81.176     -67.088
  N     -449.720     -82.173     -67.940
  N     -450.307     -80.497     -66.471
  C     -449.816     -79.514     -65.679
  C     -448.506     -79.182     -65.429
  C     -447.482     -79.946     -66.105
  O     -446.277     -79.800     -65.985
  N     -448.423     -78.137     -64.531
  C     -449.681     -77.849     -64.246
  N     -450.563     -78.651     -64.917
  O     -453.676     -78.122     -59.059
  O     -451.696     -79.756     -59.101
  H     -451.616     -81.177     -65.540
  H     -454.074     -78.859     -58.555
  H     -447.343     -81.487     -67.427
  H     -450.002     -77.074     -63.557
  H     -452.395     -78.509     -65.854
  H     -451.944     -80.289     -63.363
  H     -449.053     -82.715     -68.476
  H     -454.345     -80.253     -63.072
  H     -450.704     -82.361     -68.077
  H     -454.564     -77.515     -63.809
  H     -453.399     -76.933     -61.649
  H     -454.718     -78.126     -61.466
  P     -456.308     -80.063     -64.787
  C     -457.241     -77.865     -65.818
  O     -457.216     -79.280     -65.866
  O     -456.685     -79.351     -63.408
  O     -456.530     -81.539     -64.717
  H     -456.774     -80.015     -62.701
  H     -457.882     -77.493     -66.590
  H     -456.251     -77.486     -65.963
  H     -457.609     -77.547     -64.865

 6  7  8  9  10  11  12  13  14  15  26  29  33  34 0
 6-311+G(2d,p)
 ****
 36  38  39  40  41 0
 6-311+G(2d,p)
 ****
 1  2  3  4  5  16  17  18  19  20  21  22  23  24  25 0
 3-21G
 ****
 27  28  30  31  32  35  37  42  43  44  45  46  47 0
 3-21G
 ****
 48  49 0
 3-21G
 ****


