%nproc=1
%NoSave
%Mem=1900MB
#P OB98/GEN NMR

erre ene a

0 1
  C     -239.926    -317.108      32.097
  O     -239.934    -318.066      31.059
  H     -240.671    -317.396      32.841
  H     -240.183    -316.122      31.706
  H     -238.942    -317.076      32.577
  P     -238.969    -317.845      29.797
  C     -239.250    -317.093      27.342
  O     -239.904    -317.410      28.566
  C     -240.157    -316.218      26.469
  O     -241.325    -317.000      26.120
  C     -240.631    -314.950      27.198
  O     -240.376    -313.756      26.457
  C     -242.078    -315.274      27.560
  O     -242.908    -314.144      27.709
  C     -242.502    -316.245      26.452
  N     -243.598    -317.134      26.839
  C     -244.898    -316.669      26.651
  O     -245.194    -315.577      26.176
  N     -245.896    -317.532      27.036
  C     -245.723    -318.767      27.588
  O     -246.657    -319.494      27.908
  C     -244.328    -319.189      27.787
  C     -243.346    -318.369      27.414
  O     -238.028    -318.966      29.498
  O     -238.179    -316.494      30.141
  H     -243.047    -313.768      26.814
  H     -237.262    -316.711      30.406
  H     -246.838    -317.215      26.890
  H     -244.157    -320.161      28.236
  H     -242.305    -318.647      27.547
  H     -242.823    -315.696      25.565
  H     -242.079    -315.805      28.523
  H     -240.059    -314.797      28.120
  H     -239.629    -315.978      25.539
  H     -239.023    -318.035      26.829
  H     -238.313    -316.563      27.553
  P     -239.537    -312.507      26.989
  C     -240.084    -310.104      27.916
  O     -240.557    -311.358      27.434
  O     -238.382    -312.089      26.139
  O     -238.939    -313.025      28.398
  H     -238.076    -312.576      28.508
  H     -240.917    -309.478      28.159
  H     -239.492    -309.632      27.160
  H     -239.488    -310.260      28.791

 6  7  8  9  10  11  12  13  14  15  16  26  31  32  33  34  35 0
 6-311+G(2d,p)
 ****
 36  37 0
 6-311+G(2d,p)
 ****
 1  2  3  4  5  17  18  19  20  21  22  23  24  25 0
 3-21G
 ****
 27  28  29  30  38  39  40  41  42  43  44  45 0
 3-21G
 ****


