%nproc=1
%NoSave
%Mem=1900MB
#P OB98/GEN NMR

erre ene a

0 1
  C      469.016    -674.794      35.836
  O      468.901    -675.050      37.226
  H      469.727    -673.979      35.695
  H      468.054    -674.495      35.426
  H      469.382    -675.683      35.312
  P      467.984    -676.297      37.660
  C      469.569    -677.055      39.582
  O      468.979    -677.370      38.335
  C      470.207    -678.309      40.189
  O      469.165    -679.308      40.373
  C      471.290    -678.924      39.295
  O      472.328    -679.438      40.110
  C      470.561    -680.070      38.600
  O      471.423    -681.092      38.129
  C      469.613    -680.527      39.714
  N      468.467    -681.272      39.186
  C      468.727    -682.509      38.599
  O      469.837    -683.039      38.559
  N      467.654    -683.144      38.039
  C      466.372    -682.671      37.996
  O      465.451    -683.275      37.477
  C      466.155    -681.363      38.639
  C      467.199    -680.734      39.184
  O      467.595    -676.972      36.263
  O      466.782    -675.954      38.477
  H      466.781    -676.602      35.914
  H      472.037    -681.323      38.865
  H      467.825    -684.039      37.617
  H      465.157    -680.944      38.599
  H      467.081    -679.753      39.644
  H      470.144    -681.122      40.449
  H      469.999    -679.694      37.739
  H      471.704    -678.217      38.571
  H      470.592    -678.064      41.172
  H      468.789    -676.670      40.260
  H      470.328    -676.276      39.436
  P      473.531    -678.446      40.535
  C      473.163    -678.187      43.113
  O      472.980    -677.637      41.812
  O      473.453    -677.384      39.343
  O      474.832    -679.142      40.713
  H      472.549    -677.189      39.034
  H      472.741    -677.527      43.842
  H      474.209    -678.309      43.305
  H      472.677    -679.138      43.170

 6  7  8  9  10  11  12  13  14  15  16  27  31  32  33  34  35 0
 6-311+G(2d,p)
 ****
 36  37 0
 6-311+G(2d,p)
 ****
 1  2  3  4  5  17  18  19  20  21  22  23  24  25 0
 3-21G
 ****
 26  28  29  30  38  39  40  41  42  43  44  45 0
 3-21G
 ****


