%nproc=1
%NoSave
%Mem=1900MB
#P OB98/GEN NMR

erre ene a

0 1
  C     1143.619     547.091     562.281
  O     1142.800     548.129     561.777
  H     1144.651     547.219     561.933
  H     1143.603     547.134     563.369
  H     1143.241     546.118     561.963
  P     1142.771     548.305     560.181
  C     1144.784     549.846     559.628
  O     1143.389     549.750     559.873
  C     1145.053     550.714     558.401
  O     1144.624     550.041     557.209
  C     1144.319     552.048     558.401
  O     1144.959     553.009     559.253
  C     1144.422     552.425     556.934
  O     1145.724     552.998     556.676
  C     1144.286     551.071     556.232
  N     1140.623     552.653     553.006
  C     1141.859     553.148     553.286
  N     1142.763     552.681     554.162
  C     1142.316     551.574     554.771
  C     1141.090     550.961     554.600
  C     1140.211     551.545     553.666
  N     1138.943     551.064     553.394
  N     1140.982     549.840     555.392
  C     1142.122     549.782     556.046
  N     1142.965     550.807     555.715
  O     1141.217     548.481     559.854
  O     1143.368     547.178     559.407
  H     1145.707     553.903     557.037
  H     1141.015     548.049     558.998
  H     1142.140     554.030     552.727
  H     1142.387     549.003     556.761
  H     1145.013     550.960     555.415
  H     1143.680     553.169     556.621
  H     1143.251     551.928     558.681
  H     1146.142     550.860     558.330
  H     1145.192     548.841     559.456
  H     1138.453     551.405     552.586
  H     1138.657     550.217     553.884
  H     1145.271     550.267     560.521
  P     1144.053     553.798     560.308
  C     1142.832     555.353     558.623
  O     1143.795     555.250     559.671
  O     1145.063     554.081     561.502
  O     1142.834     553.063     560.776
  H     1144.564     554.197     562.355
  H     1142.766     556.370     558.298
  H     1141.877     555.031     558.983
  H     1143.131     554.735     557.802

 6  7  8  9  10  11  12  13  14  15  25  28  32  33  34  35 0
 6-311+G(2d,p)
 ****
 36  39  40 0
 6-311+G(2d,p)
 ****
 1  2  3  4  5  16  17  18  19  20  21  22  23  24 0
 3-21G
 ****
 26  27  29  30  31  37  38  41  42  43  44  45  46  47  48 0
 3-21G
 ****


