%nproc=1
%NoSave
%Mem=1900MB
#P OB98/GEN NMR

erre ene a

0 1
  C     -898.230    -399.280    -188.217
  O     -897.020    -398.555    -188.135
  H     -898.970    -398.679    -188.764
  H     -898.620    -399.475    -187.217
  H     -898.090    -400.217    -188.757
  P     -895.720    -399.282    -187.550
  C     -894.270    -398.992    -189.672
  O     -894.920    -399.900    -188.803
  C     -893.810    -399.688    -190.953
  O     -894.990    -400.222    -191.637
  C     -893.070    -398.779    -191.955
  O     -892.140    -399.597    -192.667
  C     -894.230    -398.329    -192.846
  O     -893.810    -397.692    -194.010
  C     -894.970    -399.677    -192.980
  N     -896.310    -399.606    -193.535
  C     -896.510    -400.081    -194.835
  O     -895.630    -400.583    -195.537
  N     -897.800    -399.997    -195.317
  C     -898.880    -399.488    -194.641
  O     -900.000    -399.449    -195.114
  C     -898.610    -398.974    -193.290
  C     -897.350    -399.061    -192.793
  O     -895.960    -400.224    -186.420
  O     -894.780    -398.063    -187.104
  H     -894.830    -397.944    -186.135
  H     -893.420    -396.821    -193.773
  H     -897.960    -400.342    -196.252
  H     -899.420    -398.564    -192.721
  H     -897.120    -398.719    -191.787
  H     -894.360    -400.372    -193.599
  H     -894.860    -397.602    -192.311
  H     -892.550    -397.948    -191.465
  H     -893.190    -400.553    -190.681
  H     -893.390    -398.586    -189.133
  H     -894.950    -398.161    -189.920
  P     -890.830    -400.230    -192.009
  C     -891.600    -402.677    -192.382
  O     -891.220    -401.691    -191.442
  O     -890.170    -399.355    -191.006
  O     -889.850    -400.555    -193.241
  H     -888.910    -400.544    -192.925
  H     -891.829    -403.588    -191.870
  H     -890.796    -402.845    -193.067
  H     -892.463    -402.343    -192.920

 6  7  8  9  10  11  12  13  14  15  16  27  31  32  33  34  35 0
 6-311+G(2d,p)
 ****
 36  37 0
 6-311+G(2d,p)
 ****
 1  2  3  4  5  17  18  19  20  21  22  23  24  25 0
 3-21G
 ****
 26  28  29  30  38  39  40  41  42  43  44  45 0
 3-21G
 ****


