%nproc=1
%NoSave
%Mem=1900MB
#P OB98/GEN NMR

erre ene a

0 1
  C      125.467     571.294    -110.544
  O      126.268     571.907    -109.542
  P      125.530     572.446    -108.221
  C      127.766     573.754    -107.720
  O      126.350     573.750    -107.772
  C      128.301     575.182    -107.817
  O      128.466     575.556    -109.202
  C      127.376     576.244    -107.223
  O      127.451     576.263    -105.802
  C      127.901     577.509    -107.895
  O      129.087     577.977    -107.238
  C      128.246     576.977    -109.308
  N      127.235     577.299    -110.317
  C      127.398     578.495    -110.998
  O      128.336     579.266    -110.796
  N      126.432     578.787    -111.919
  C      125.301     578.053    -112.175
  O      124.444     578.393    -112.984
  C      125.173     576.815    -111.394
  C      126.125     576.499    -110.521
  O      125.954     571.318    -107.169
  O      124.058     572.627    -108.402
  H      126.799     570.898    -107.405
  H      129.375     578.782    -107.718
  H      126.538     579.643    -112.449
  H      124.287     576.210    -111.560
  H      126.038     575.593    -109.922
  H      129.208     577.409    -109.640
  H      127.169     578.322    -107.892
  H      126.345     576.056    -107.535
  H      129.285     575.214    -107.335
  H      128.145     573.165    -108.563
  H      128.091     573.280    -106.794
  P      126.090     576.644    -105.020
  C      127.334     577.341    -102.826
  O      126.502     577.717    -103.909
  O      125.808     575.294    -104.196
  O      124.977     577.063    -105.938
  H      126.616     574.931    -103.808
  H      127.786     578.239    -102.394
  H      128.134     576.665    -103.158
  H      126.732     576.840    -102.064
  H      126.089     570.986    -111.359
  H      124.738     571.994    -110.896
  H      124.971     570.440    -110.131

 3  4  5  6  7  8  9  10  11  12  13  24  28  29  30  31  32 0
 6-311+G(2d,p)
 ****
 33  34 0
 6-311+G(2d,p)
 ****
 1  2  14  15  16  17  18  19  20  21  22  23  25  26  27 0
 3-21G
 ****
 35  36  37  38  39  40  41  42  43  44  45 0
 3-21G
 ****


