%nproc=1
%NoSave
%Mem=1900MB
#P OB98/GEN NMR

erre ene a

0 1
  C     -282.070     -19.794     393.247
  O     -281.609     -20.113     394.551
  P     -281.692     -19.046     395.747
  C     -279.195     -18.543     395.330
  O     -280.501     -18.009     395.465
  C     -278.403     -17.734     394.300
  O     -279.242     -17.457     393.159
  C     -277.924     -16.375     394.801
  O     -276.801     -16.515     395.657
  C     -277.667     -15.655     393.481
  O     -276.402     -16.061     392.929
  C     -278.816     -16.189     392.596
  N     -279.936     -15.253     392.496
  C     -279.672     -14.040     391.854
  O     -278.557     -13.791     391.396
  N     -280.696     -13.139     391.709
  C     -281.877     -13.413     392.185
  N     -282.872     -12.511     391.955
  C     -282.179     -14.653     392.916
  C     -281.175     -15.523     393.032
  O     -281.695     -19.635     397.116
  O     -282.996     -18.178     395.417
  H     -276.302     -15.584     392.082
  H     -283.830     -18.550     395.796
  H     -283.172     -14.830     393.307
  H     -281.322     -16.470     393.534
  H     -278.446     -16.412     391.588
  H     -277.658     -14.563     393.572
  H     -278.728     -15.866     395.348
  H     -277.549     -18.338     393.961
  H     -282.660     -11.764     391.303
  H     -279.272     -19.581     394.980
  H     -283.846     -12.767     392.027
  H     -278.694     -18.534     396.305
  P     -276.909     -15.908     397.136
  C     -275.353     -14.002     396.308
  O     -276.541     -14.354     397.001
  O     -275.656     -16.552     397.889
  O     -278.199     -16.203     397.830
  H     -275.941     -17.301     398.447
  H     -275.374     -12.930     396.099
  H     -275.285     -14.545     395.357
  H     -274.482     -14.225     396.925
  H     -281.926     -20.636     392.602
  H     -281.521     -18.957     392.869
  H     -283.111     -19.549     393.287

 3  4  5  6  7  8  9  10  11  12  13  23  27  28  29  30  32 0
 6-311+G(2d,p)
 ****
 34  35 0
 6-311+G(2d,p)
 ****
 1  2  14  15  16  17  18  19  20  21  22  24  25  26 0
 3-21G
 ****
 31  33  36  37  38  39  40  41  42  43  44  45  46 0
 3-21G
 ****


