%nproc=1
%NoSave
%Mem=1900MB
#P OB98/GEN NMR

erre ene a

0 1
  C      766.965    -709.305    -325.564
  O      766.511    -710.635    -325.719
  H      767.157    -708.881    -326.552
  H      767.899    -709.300    -324.990
  H      766.218    -708.697    -325.055
  P      765.910    -711.403    -324.460
  C      763.559    -710.566    -325.129
  O      764.527    -710.666    -324.087
  C      762.265    -709.945    -324.591
  O      761.577    -710.937    -323.780
  C      762.476    -708.696    -323.708
  O      761.342    -707.848    -323.912
  C      762.457    -709.320    -322.321
  O      762.305    -708.348    -321.325
  C      761.314    -710.324    -322.501
  N      761.230    -711.313    -321.440
  C      760.242    -711.150    -320.474
  O      759.429    -710.233    -320.495
  N      760.233    -712.068    -319.471
  C      761.090    -713.120    -319.313
  O      761.016    -713.934    -318.405
  C      762.140    -713.232    -320.350
  C      762.154    -712.347    -321.339
  O      766.847    -711.603    -323.308
  O      765.414    -712.804    -325.064
  H      766.102    -713.486    -324.901
  H      763.110    -707.792    -321.254
  H      759.505    -711.967    -318.775
  H      762.841    -714.042    -320.256
  H      762.918    -712.395    -322.120
  H      760.357    -709.813    -322.586
  H      763.394    -709.841    -322.125
  H      763.404    -708.164    -323.949
  H      761.602    -709.715    -325.449
  H      763.366    -711.571    -325.519
  H      763.964    -709.949    -325.940
  P      761.241    -706.784    -325.118
  C      759.125    -707.757    -326.242
  O      760.517    -707.498    -326.378
  O      762.546    -706.142    -325.459
  O      760.181    -705.684    -324.643
  H      760.449    -704.813    -324.977
  H      758.761    -708.227    -327.132
  H      758.604    -706.835    -326.087
  H      758.963    -708.403    -325.405

 6  7  8  9  10  11  12  13  14  15  16  27  31  32  33  34  35 0
 6-311+G(2d,p)
 ****
 36  37 0
 6-311+G(2d,p)
 ****
 1  2  3  4  5  17  18  19  20  21  22  23  24  25 0
 3-21G
 ****
 26  28  29  30  38  39  40  41  42  43  44  45 0
 3-21G
 ****


