%nproc=1
%NoSave
%Mem=1900MB
#P OB98/GEN NMR

erre ene a

0 1
  C      745.732    -644.286    -101.496
  O      745.269    -645.162    -102.508
  H      744.892    -643.888    -100.923
  H      746.384    -644.849    -100.822
  H      746.306    -643.469    -101.948
  P      744.207    -644.556    -103.542
  C      742.110    -643.098    -103.072
  O      742.875    -644.233    -102.698
  C      740.894    -642.966    -102.167
  O      741.276    -643.134    -100.785
  C      740.201    -641.604    -102.226
  O      739.366    -641.486    -103.374
  C      739.383    -641.645    -100.945
  O      738.185    -642.418    -101.156
  C      740.320    -642.391     -99.981
  N      740.014    -639.412     -95.807
  C      739.084    -640.164     -96.455
  N      739.233    -640.917     -97.563
  C      740.501    -640.873     -97.993
  C      741.551    -640.161     -97.445
  C      741.275    -639.397     -96.300
  N      742.218    -638.629     -95.660
  N      742.716    -640.373     -98.154
  C      742.376    -641.202     -99.122
  N      741.047    -641.525     -99.073
  O      743.781    -645.819    -104.430
  O      744.711    -643.432    -104.392
  H      737.814    -642.602    -100.269
  H      743.630    -645.523    -105.347
  H      738.090    -640.145     -96.018
  H      743.056    -641.594     -99.875
  H      739.771    -643.133     -99.379
  H      739.081    -640.659    -100.595
  H      740.925    -640.782    -102.169
  H      740.186    -643.768    -102.423
  H      741.778    -643.212    -104.110
  H      742.012    -638.268     -94.741
  H      743.163    -638.632     -96.033
  H      742.741    -642.204    -102.999
  P      738.650    -640.071    -103.618
  C      737.340    -638.417    -102.101
  O      737.897    -639.720    -102.245
  O      737.450    -640.439    -104.610
  O      739.524    -639.002    -104.182
  H      737.194    -639.659    -105.131
  H      736.874    -638.332    -101.141
  H      736.611    -638.254    -102.867
  H      738.116    -637.686    -102.187

 6  7  8  9  10  11  12  13  14  15  25  28  32  33  34  35 0
 6-311+G(2d,p)
 ****
 36  39  40 0
 6-311+G(2d,p)
 ****
 1  2  3  4  5  16  17  18  19  20  21  22  23  24 0
 3-21G
 ****
 26  27  29  30  31  37  38  41  42  43  44  45  46  47  48 0
 3-21G
 ****


