%nproc=1
%NoSave
%Mem=1900MB
#P OB98/GEN NMR

erre ene a

0 1
  C      294.353     367.233     464.907
  O      294.804     368.567     464.993
  P      295.204     369.368     463.665
  C      297.657     369.580     464.406
  O      296.763     369.122     463.389
  C      298.837     368.617     464.536
  O      298.376     367.285     464.855
  C      299.666     368.475     463.265
  O      300.503     369.597     463.069
  C      300.400     367.164     463.540
  O      301.546     367.395     464.373
  C      299.338     366.361     464.304
  N      299.833     361.910     461.848
  C      300.739     362.708     462.471
  N      300.537     363.894     463.068
  C      299.245     364.262     462.964
  C      298.223     363.574     462.323
  C      298.549     362.330     461.765
  N      297.631     361.484     461.191
  N      297.037     364.290     462.404
  C      297.356     365.399     463.058
  N      298.657     365.388     463.474
  O      294.772     370.794     463.629
  O      294.499     368.535     462.493
  H      301.983     366.531     464.514
  H      293.858     369.109     462.026
  H      301.760     362.323     462.496
  H      296.670     366.208     463.270
  H      299.773     365.813     465.153
  H      300.755     366.675     462.626
  H      298.999     368.337     462.398
  H      299.475     368.968     465.372
  H      297.109     369.628     465.353
  H      297.948     360.556     460.951
  H      296.644     361.635     461.386
  H      298.013     370.583     464.152
  P      300.091     370.730     462.023
  C      302.237     370.395     460.668
  O      300.823     370.383     460.646
  O      300.252     372.140     462.494
  O      298.553     370.399     461.699
  H      298.068     371.235     461.514
  H      302.595     371.430     460.635
  H      302.611     369.866     459.786
  H      302.621     369.908     461.563
  H      294.135     366.866     465.888
  H      295.114     366.627     464.461
  H      293.468     367.194     464.307

 3  4  5  6  7  8  9  10  11  12  22  25  29  30  31  32 0
 6-311+G(2d,p)
 ****
 33  36  37 0
 6-311+G(2d,p)
 ****
 1  2  13  14  15  16  17  18  19  20  21  23  24  26 0
 3-21G
 ****
 27  28  34  35  38  39  40  41  42  43  44  45  46  47  48 0
 3-21G
 ****


