%nproc=1
%NoSave
%Mem=1900MB
#P OB98/GEN NMR

erre ene a

0 1
  C     -527.370      21.357    -894.550
  O     -526.425      21.699    -893.540
  P     -525.464      20.564    -892.970
  C     -523.380      22.086    -893.160
  O     -523.964      20.828    -893.510
  C     -522.434      22.563    -894.280
  O     -523.180      22.722    -895.510
  C     -521.765      23.922    -894.030
  O     -520.515      23.930    -893.350
  C     -521.477      24.380    -895.460
  O     -520.241      23.777    -895.930
  C     -522.637      23.827    -896.250
  N     -524.032      27.775    -899.230
  C     -522.921      26.990    -899.230
  N     -522.633      25.942    -898.410
  C     -523.622      25.759    -897.530
  C     -524.792      26.482    -897.410
  C     -524.975      27.538    -898.310
  N     -526.097      28.345    -898.320
  N     -525.588      25.996    -896.350
  C     -524.870      25.001    -895.860
  N     -523.684      24.819    -896.520
  O     -525.957      19.150    -893.100
  O     -525.339      20.965    -891.420
  H     -519.561      24.011    -895.280
  H     -525.303      20.132    -890.880
  H     -522.185      27.191    -900.000
  H     -525.178      24.407    -895.010
  H     -522.319      23.434    -897.240
  H     -521.335      25.462    -895.520
  H     -522.466      24.600    -893.550
  H     -521.667      21.784    -894.460
  H     -522.821      21.973    -892.240
  H     -526.135      29.107    -898.980
  H     -526.802      28.237    -897.590
  H     -524.198      22.792    -892.970
  P     -520.393      23.376    -891.820
  C     -518.245      21.982    -892.340
  O     -519.595      21.992    -891.930
  O     -521.694      23.286    -891.080
  O     -519.334      24.373    -891.180
  H     -518.427      24.275    -891.530
  H     -517.829      20.979    -892.130
  H     -517.654      22.729    -891.810
  H     -518.167      22.190    -893.420
  H     -527.933      22.226    -894.821
  H     -528.033      20.604    -894.178
  H     -526.854      20.984    -895.410

 3  4  5  6  7  8  9  10  11  12  22  25  29  30  31  32 0
 6-311+G(2d,p)
 ****
 33  36  37 0
 6-311+G(2d,p)
 ****
 1  2  13  14  15  16  17  18  19  20  21  23  24  26 0
 3-21G
 ****
 27  28  34  35  38  39  40  41  42  43  44  45  46  47  48 0
 3-21G
 ****


