%nproc=1
%NoSave
%Mem=1900MB
#P OB98/GEN NMR

erre ene a

0 1
  C       82.621     310.601      14.681
  O       81.311     310.672      14.159
  P       80.340     311.891      14.524
  C       78.441     310.286      15.141
  O       78.827     311.394      14.340
  C       77.277     309.520      14.509
  O       76.108     310.379      14.459
  C       77.553     309.021      13.085
  O       76.940     307.733      12.958
  C       76.838     310.038      12.218
  O       76.533     309.532      10.929
  C       75.626     310.361      13.100
  N       74.999     311.623      12.742
  C       73.715     311.558      12.195
  O       73.217     310.468      11.912
  N       73.041     312.734      11.969
  C       73.664     313.865      12.097
  N       72.937     315.004      11.931
  C       75.100     313.957      12.434
  C       75.688     312.816      12.783
  O       80.655     313.179      13.838
  O       80.479     312.043      16.115
  H       80.706     312.968      16.327
  H       76.202     308.613      11.018
  H       75.604     314.911      12.406
  H       76.731     312.781      13.074
  H       74.877     309.562      13.032
  H       77.469     310.928      12.095
  H       78.624     308.934      12.867
  H       77.032     308.676      15.163
  H       71.949     314.901      11.740
  H       78.129     310.662      16.119
  H       73.243     315.898      12.312
  H       79.299     309.622      15.298
  P       77.889     306.449      12.781
  C       77.445     306.195      10.237
  O       77.358     305.616      11.519
  O       77.423     305.528      14.013
  O       79.363     306.692      12.863
  H       78.153     304.931      14.258
  H       76.979     305.521       9.516
  H       78.493     306.341       9.954
  H       76.919     307.156      10.209
  H       83.102     309.716      14.319
  H       82.578     310.572      15.750
  H       83.176     311.461      14.370

 3  4  5  6  7  8  9  10  11  12  13  24  27  28  29  30  32 0
 6-311+G(2d,p)
 ****
 34  35 0
 6-311+G(2d,p)
 ****
 1  2  14  15  16  17  18  19  20  21  22  23  25  26 0
 3-21G
 ****
 31  33  36  37  38  39  40  41  42  43  44  45  46 0
 3-21G
 ****


