%nproc=1
%NoSave
%Mem=1900MB
#P OB98/GEN NMR

erre ene a

0 1
  C     -370.002     260.673     -46.638
  O     -368.776     261.236     -47.098
  P     -368.747     262.788     -47.496
  C     -369.805     263.919     -45.348
  O     -368.686     263.685     -46.176
  C     -369.458     265.015     -44.327
  O     -368.346     264.602     -43.506
  C     -369.068     266.341     -44.975
  O     -370.197     267.145     -45.261
  C     -368.144     266.939     -43.934
  O     -368.908     267.499     -42.849
  C     -367.374     265.684     -43.458
  N     -366.173     265.275     -44.220
  C     -365.104     266.159     -44.355
  O     -365.079     267.293     -43.882
  N     -364.024     265.694     -45.061
  C     -363.831     264.411     -45.484
  O     -362.818     264.036     -46.059
  C     -364.922     263.481     -45.185
  C     -366.025     263.945     -44.591
  O     -370.209     263.059     -48.075
  O     -367.677     263.153     -48.479
  H     -369.108     266.771     -42.232
  H     -370.162     263.293     -49.022
  H     -363.271     266.343     -45.231
  H     -364.791     262.441     -45.463
  H     -366.841     263.263     -44.364
  H     -367.059     265.798     -42.412
  H     -367.559     267.757     -44.345
  H     -368.479     266.160     -45.882
  H     -370.328     265.164     -43.673
  H     -370.101     263.006     -44.828
  H     -370.657     264.227     -45.962
  P     -371.051     266.882     -46.589
  C     -372.858     265.190     -47.269
  O     -372.108     265.734     -46.200
  O     -370.269     266.643     -47.836
  O     -371.984     268.183     -46.700
  H     -371.582     268.845     -47.309
  H     -373.413     264.322     -46.900
  H     -372.196     264.870     -48.077
  H     -373.570     265.932     -47.641
  H     -369.857     259.637     -46.415
  H     -370.748     260.773     -47.398
  H     -370.321     261.187     -45.755

 3  4  5  6  7  8  9  10  11  12  13  23  28  29  30  31  32 0
 6-311+G(2d,p)
 ****
 33  34 0
 6-311+G(2d,p)
 ****
 1  2  14  15  16  17  18  19  20  21  22  24  25  26  27 0
 3-21G
 ****
 35  36  37  38  39  40  41  42  43  44  45 0
 3-21G
 ****


