%nproc=1
%NoSave
%Mem=1900MB
#P OB98/GEN NMR

erre ene a

0 1
  C      557.733    -109.548      71.387
  O      556.841    -108.565      70.904
  H      557.819    -110.340      70.639
  H      557.342    -109.978      72.312
  H      558.727    -109.127      71.563
  P      556.753    -107.157      71.661
  C      558.267    -105.078      71.867
  O      558.162    -106.425      71.423
  C      559.730    -104.629      71.900
  O      560.519    -105.649      72.578
  C      560.353    -104.415      70.511
  O      561.339    -103.383      70.638
  C      561.018    -105.755      70.264
  O      561.982    -105.674      69.237
  C      561.548    -106.074      71.665
  N      561.883    -107.490      71.826
  C      562.997    -107.947      71.134
  O      563.667    -107.235      70.386
  N      563.298    -109.272      71.288
  C      562.566    -110.176      72.004
  O      562.865    -111.363      72.081
  C      561.372    -109.646      72.682
  C      561.092    -108.344      72.567
  O      556.312    -107.216      73.086
  O      555.754    -106.286      70.762
  H      562.504    -104.847      69.324
  H      555.269    -105.650      71.322
  H      564.106    -109.620      70.798
  H      560.767    -110.338      73.250
  H      560.221    -107.920      73.055
  H      562.451    -105.489      71.880
  H      560.278    -106.505      69.958
  H      559.617    -104.154      69.748
  H      559.802    -103.718      72.509
  H      557.833    -105.017      72.870
  H      557.695    -104.428      71.194
  P      561.219    -101.989      69.855
  C      560.499     -99.564      70.350
  O      560.545    -100.907      70.832
  O      560.568    -102.093      68.513
  O      562.728    -101.469      69.714
  H      562.810    -100.910      68.919
  H      560.032     -98.938      71.081
  H      559.937     -99.531      69.440
  H      561.494     -99.216      70.167

 6  7  8  9  10  11  12  13  14  15  16  26  31  32  33  34  35 0
 6-311+G(2d,p)
 ****
 36  37 0
 6-311+G(2d,p)
 ****
 1  2  3  4  5  17  18  19  20  21  22  23  24  25 0
 3-21G
 ****
 27  28  29  30  38  39  40  41  42  43  44  45 0
 3-21G
 ****


