%nproc=1
%NoSave
%Mem=1900MB
#P OB98/GEN NMR

erre ene a

0 1
  C       16.358     -73.948      23.934
  O       16.134     -72.915      22.989
  P       17.416     -72.134      22.422
  C       16.822     -69.796      23.383
  O       17.701     -70.910      23.421
  C       17.083     -68.854      24.560
  O       16.814     -69.566      25.801
  C       18.523     -68.319      24.641
  O       18.440     -66.986      25.158
  C       19.155     -69.261      25.652
  O       20.365     -68.780      26.212
  C       17.993     -69.434      26.628
  N       20.465     -71.316      30.688
  C       20.483     -70.093      30.110
  N       19.791     -69.662      29.034
  C       19.005     -70.642      28.553
  C       18.896     -71.940      29.023
  C       19.672     -72.270      30.146
  N       19.660     -73.523      30.728
  N       18.010     -72.668      28.256
  C       17.592     -71.824      27.335
  N       18.148     -70.584      27.488
  O       16.850     -71.413      21.112
  O       18.600     -73.000      22.119
  H       21.007     -68.585      25.501
  H       17.507     -71.424      20.390
  H       21.140     -69.364      30.574
  H       16.903     -72.062      26.535
  H       17.858     -68.551      27.264
  H       19.387     -70.211      25.156
  H       19.032     -68.297      23.674
  H       16.373     -68.021      24.501
  H       15.787     -70.146      23.449
  H       20.393     -73.714      31.396
  H       19.231     -74.271      30.198
  H       16.939     -69.273      22.427
  P       19.239     -65.813      24.408
  C       21.300     -66.620      25.715
  O       20.768     -66.306      24.442
  O       19.243     -64.677      25.539
  O       18.685     -65.382      23.095
  H       19.553     -65.024      26.395
  H       22.305     -67.030      25.582
  H       20.675     -67.365      26.216
  H       21.367     -65.714      26.324
  H       15.421     -74.377      24.222
  H       16.845     -73.543      24.796
  H       16.977     -74.703      23.497

 3  4  5  6  7  8  9  10  11  12  22  25  29  30  31  32 0
 6-311+G(2d,p)
 ****
 33  36  37 0
 6-311+G(2d,p)
 ****
 1  2  13  14  15  16  17  18  19  20  21  23  24  26 0
 3-21G
 ****
 27  28  34  35  38  39  40  41  42  43  44  45  46  47  48 0
 3-21G
 ****


