%nproc=1
%NoSave
%Mem=1900MB
#P OB98/GEN NMR

erre ene a

0 1
  C     -281.937    -186.332     493.136
  O     -282.215    -185.588     494.316
  P     -281.484    -186.042     495.669
  C     -279.615    -184.259     495.323
  O     -279.939    -185.639     495.518
  C     -278.784    -183.749     496.492
  O     -277.701    -184.649     496.794
  C     -278.129    -182.396     496.246
  O     -279.020    -181.305     496.451
  C     -277.038    -182.400     497.311
  O     -277.605    -182.042     498.590
  C     -276.598    -183.868     497.311
  N     -271.596    -184.603     497.446
  C     -272.512    -184.603     498.483
  N     -272.017    -184.761     499.729
  N     -273.798    -184.462     498.306
  C     -274.149    -184.309     497.001
  C     -273.323    -184.296     495.895
  C     -271.904    -184.435     496.106
  O     -271.028    -184.397     495.242
  N     -274.048    -184.125     494.741
  C     -275.285    -184.036     495.145
  N     -275.407    -184.087     496.510
  O     -281.452    -187.641     495.565
  O     -282.150    -185.584     496.924
  H     -278.003    -181.157     498.467
  H     -281.280    -188.035     496.436
  H     -270.610    -184.715     497.643
  H     -276.146    -183.908     494.484
  H     -276.397    -184.232     498.331
  H     -276.239    -181.684     497.099
  H     -271.036    -184.805     499.936
  H     -277.657    -182.364     495.250
  H     -272.667    -184.694     500.505
  H     -279.428    -183.698     497.375
  H     -280.540    -183.683     495.245
  H     -279.064    -184.153     494.380
  P     -278.922    -180.079     495.410
  C     -281.203    -180.396     494.215
  O     -279.798    -180.518     494.135
  O     -277.402    -180.185     494.880
  O     -279.232    -178.739     496.005
  H     -277.095    -179.305     494.592
  H     -281.622    -180.471     493.202
  H     -281.492    -179.420     494.630
  H     -281.623    -181.191     494.830
  H     -282.489    -185.921     492.317
  H     -282.223    -187.353     493.282
  H     -280.890    -186.282     492.921

 3  4  5  6  7  8  9  10  11  12  23  26  30  31 0
 6-311+G(2d,p)
 ****
 33  35  36  37  38 0
 6-311+G(2d,p)
 ****
 1  2  13  14  15  16  17  18  19  20  21  22  24  25 0
 3-21G
 ****
 27  28  29  32  34  39  40  41  42  43  44  45  46  47  48  49 0
 3-21G
 ****


