%nproc=1
%NoSave
%Mem=1900MB
#P OB98/GEN NMR

erre ene a

0 1
  C     -133.854     271.294     -59.728
  O     -132.746     272.068     -60.147
  H     -133.840     271.221     -58.639
  H     -133.790     270.288     -60.153
  H     -134.788     271.771     -60.040
  P     -132.599     272.307     -61.726
  C     -130.519     270.841     -62.296
  O     -131.933     270.972     -62.315
  C     -130.093     269.548     -63.001
  O     -130.716     268.419     -62.319
  C     -130.525     269.470     -64.474
  O     -129.573     268.650     -65.172
  C     -131.851     268.732     -64.368
  O     -132.273     268.264     -65.627
  C     -131.478     267.695     -63.312
  N     -134.628     263.674     -63.511
  C     -133.532     263.994     -64.232
  N     -132.737     265.075     -64.114
  C     -133.157     265.867     -63.111
  C     -134.252     265.667     -62.283
  C     -135.011     264.509     -62.516
  N     -136.131     264.183     -61.788
  N     -134.366     266.700     -61.372
  C     -133.360     267.506     -61.644
  N     -132.609     267.049     -62.692
  O     -131.429     273.393     -61.826
  O     -133.838     272.753     -62.426
  H     -132.226     268.978     -66.297
  H     -131.811     274.288     -61.892
  H     -133.260     263.287     -65.012
  H     -133.136     268.431     -61.127
  H     -130.830     266.911     -63.721
  H     -132.638     269.397     -63.999
  H     -130.591     270.446     -64.960
  H     -129.009     269.423     -62.895
  H     -130.186     270.823     -61.253
  H     -130.066     271.697     -62.803
  H     -136.629     263.342     -62.028
  H     -136.437     264.805     -61.054
  P     -128.372     269.356     -65.972
  C     -129.371     269.096     -68.377
  O     -128.955     269.968     -67.337
  O     -127.541     268.093     -66.508
  O     -127.498     270.262     -65.169
  H     -126.604     268.342     -66.615
  H     -129.729     269.673     -69.204
  H     -130.155     268.462     -68.019
  H     -128.543     268.496     -68.692

 6  7  8  9  10  11  12  13  14  15  25  28  32  33  34  35 0
 6-311+G(2d,p)
 ****
 36  37  40 0
 6-311+G(2d,p)
 ****
 1  2  3  4  5  16  17  18  19  20  21  22  23  24 0
 3-21G
 ****
 26  27  29  30  31  38  39 41  42  43  44  45  46  47  48 0
 3-21G
 ****


