%nproc=1
%NoSave
%Mem=1900MB
#P OB98/GEN NMR

erre ene a

0 1
  C      402.978      34.778     -88.322
  O      402.220      35.156     -87.165
  P      402.557      36.560     -86.470
  C      400.594      37.856     -87.578
  O      402.000      37.728     -87.413
  C      400.074      39.057     -86.778
  O      400.584      40.304     -87.297
  C      398.556      39.186     -86.794
  O      397.946      38.346     -85.824
  C      398.386      40.644     -86.396
  O      398.521      40.781     -84.964
  C      399.563      41.318     -87.112
  N      401.343      43.252     -91.437
  C      402.019      42.764     -90.335
  N      403.369      42.795     -90.395
  N      401.425      42.297     -89.266
  C      400.075      42.316     -89.354
  C      399.291      42.774     -90.391
  C      399.958      43.302     -91.556
  O      399.413      43.760     -92.559
  N      397.961      42.635     -90.106
  C      397.930      42.077     -88.910
  N      399.193      41.879     -88.403
  O      404.146      36.679     -86.661
  O      402.169      36.643     -85.031
  H      397.927      40.118     -84.565
  H      404.524      37.221     -85.946
  H      401.848      43.605     -92.229
  H      397.034      41.800     -88.374
  H      400.004      42.130     -86.523
  H      397.397      41.036     -86.657
  H      403.887      43.093     -91.203
  H      398.153      39.023     -87.800
  H      403.882      42.412     -89.610
  H      400.417      38.946     -85.739
  H      400.087      36.945     -87.252
  H      400.370      37.960     -88.644
  P      396.587      37.599     -86.229
  C      397.724      35.356     -86.887
  O      396.996      36.492     -87.314
  O      395.812      38.710     -87.086
  O      395.768      37.117     -85.082
  H      394.848      38.604     -86.978
  H      397.773      34.641     -87.711
  H      397.231      34.879     -86.035
  H      398.742      35.645     -86.610
  H      402.642      33.824     -88.672
  H      404.015      34.719     -88.065
  H      402.842      35.509     -89.092

 3  4  5  6  7  8  9  10  11  12  23  26  30  31 0
 6-311+G(2d,p)
 ****
 33  35  36  37  38 0
 6-311+G(2d,p)
 ****
 1  2  13  14  15  16  17  18  19  20  21  22  24  25 0
 3-21G
 ****
 27  28  29  32  34  39  40  41  42  43  44  45  46  47  48  49 0
 3-21G
 ****


