%nproc=1
%NoSave
%Mem=1900MB
#P OB98/GEN NMR

erre ene a

0 1
  C       25.660     -24.166     -25.025
  O       26.115     -24.597     -23.756
  H       24.579     -24.317     -25.079
  H       26.136     -24.738     -25.826
  H       25.870     -23.100     -25.157
  P       27.699     -24.717     -23.523
  C       27.260     -26.121     -21.399
  O       27.906     -26.065     -22.670
  C       26.985     -27.571     -20.988
  O       26.007     -28.159     -21.870
  C       28.203     -28.475     -21.086
  O       29.204     -28.201     -20.128
  C       27.578     -29.862     -21.144
  O       27.303     -30.414     -19.860
  C       26.248     -29.581     -21.887
  N       26.257     -30.114     -23.244
  C       26.192     -31.499     -23.351
  O       26.151     -32.255     -22.379
  N       26.217     -32.002     -24.623
  C       26.351     -31.271     -25.767
  O       26.410     -31.784     -26.879
  C       26.443     -29.812     -25.590
  C       26.392     -29.307     -24.355
  O       28.362     -23.513     -22.923
  O       28.266     -25.112     -24.965
  H       28.132     -30.365     -19.344
  H       29.240     -24.957     -25.019
  H       26.160     -33.002     -24.721
  H       26.552     -29.202     -26.476
  H       26.459     -28.233     -24.198
  H       25.410     -30.043     -21.351
  H       28.224     -30.571     -21.665
  H       28.671     -28.311     -22.064
  H       26.572     -27.569     -19.973
  H       26.309     -25.586     -21.486
  H       27.880     -25.621     -20.647
  P       30.749     -28.540     -20.352
  C       31.242     -27.495     -18.024
  O       31.469     -28.582     -18.914
  O       31.436     -27.834     -21.476
  O       30.676     -30.105     -20.740
  H       31.387     -30.280     -21.388
  H       31.781     -27.660     -17.115
  H       30.196     -27.421     -17.810
  H       31.578     -26.586     -18.478

 6  7  8  9  10  11  12  13  14  15  16  26  31  32  33  34  35 0
 6-311+G(2d,p)
 ****
 36  37 0
 6-311+G(2d,p)
 ****
 1  2  3  4  5  17  18  19  20  21  22  23  24  25 0
 3-21G
 ****
 27  28  29  30  38  39  40  41  42  43  44  45 0
 3-21G
 ****


