%nproc=1
%NoSave
%Mem=1900MB
#P OB98/GEN NMR

erre ene a

0 1
  C      -75.428     232.630     284.622
  O      -76.076     233.593     285.434
  P      -75.181     234.390     286.500
  C      -76.893     233.648     288.325
  O      -75.528     233.804     287.950
  C      -77.119     232.235     288.877
  O      -76.680     231.247     287.915
  C      -76.333     231.945     290.150
  O      -76.960     232.517     291.284
  C      -76.319     230.425     290.161
  O      -77.538     229.904     290.724
  C      -76.230     230.093     288.658
  N      -74.890     229.677     288.259
  C      -74.476     228.429     288.722
  O      -75.174     227.719     289.450
  N      -73.214     228.047     288.363
  C      -72.318     228.790     287.643
  O      -71.185     228.412     287.397
  C      -72.806     230.109     287.197
  C      -74.044     230.486     287.529
  O      -75.829     235.856     286.524
  O      -73.726     234.434     286.180
  H      -77.479     228.930     290.666
  H      -75.130     236.528     286.648
  H      -72.899     227.139     288.668
  H      -72.121     230.725     286.630
  H      -74.409     231.462     287.230
  H      -76.927     229.286     288.410
  H      -75.496     230.024     290.760
  H      -75.304     232.310     290.049
  H      -78.193     232.097     289.045
  H      -77.532     233.810     287.453
  H      -77.142     234.399     289.080
  P      -76.108     233.576     292.131
  C      -75.924     231.748     293.993
  O      -75.268     232.698     293.176
  O      -77.259     234.271     293.002
  O      -75.323     234.519     291.274
  H      -77.980     233.649     293.211
  H      -76.749     231.270     293.462
  H      -76.296     232.238     294.889
  H      -75.201     230.976     294.282
  H      -76.142     232.181     283.963
  H      -74.991     231.876     285.243
  H      -74.662     233.106     284.046

 3  4  5  6  7  8  9  10  11  12  13  23  28  29  30  31  32 0
 6-311+G(2d,p)
 ****
 33  34 0
 6-311+G(2d,p)
 ****
 1  2  14  15  16  17  18  19  20  21  22  24  25  26 0
 3-21G
 ****
 27  35  36  37  38  39  40  41  42  43  44  45 0
 3-21G
 ****


