%nproc=1
%NoSave
%Mem=1900MB
#P OB98/GEN NMR

erre ene a

0 1
  C     -899.310    -441.411     126.393
  O     -898.010    -440.858     126.379
  H     -900.000    -440.667     126.786
  H     -899.340    -442.292     127.041
  H     -899.630    -441.682     125.381
  P     -896.800    -441.715     125.746
  C     -895.210    -439.883     126.563
  O     -895.470    -441.264     126.521
  C     -894.190    -439.546     127.659
  O     -894.900    -439.451     128.933
  C     -893.090    -440.611     127.829
  O     -891.860    -439.958     128.134
  C     -893.550    -441.419     129.036
  O     -892.460    -442.028     129.712
  C     -894.270    -440.349     129.862
  N     -895.300    -441.460     134.683
  C     -894.230    -440.783     134.146
  N     -893.270    -440.351     134.994
  N     -894.100    -440.555     132.841
  C     -895.130    -441.007     132.109
  C     -896.260    -441.694     132.545
  C     -896.370    -441.969     133.961
  O     -897.300    -442.585     134.497
  N     -897.060    -442.024     131.475
  C     -896.460    -441.545     130.423
  N     -895.260    -440.934     130.750
  O     -896.700    -441.685     124.266
  O     -897.060    -443.204     126.300
  H     -891.850    -441.311     129.985
  H     -897.500    -443.750     125.607
  H     -895.340    -441.624     135.673
  H     -896.790    -441.618     129.400
  H     -893.590    -439.770     130.497
  H     -894.250    -442.203     128.705
  H     -893.310    -440.484     135.990
  H     -892.960    -441.244     126.942
  H     -892.480    -439.839     134.615
  H     -893.750    -438.555     127.467
  H     -896.150    -439.355     126.769
  H     -894.820    -439.552     125.584
  P     -890.700    -439.931     127.019
  C     -889.960    -437.506     127.509
  O     -889.600    -438.889     127.485
  O     -891.160    -439.792     125.605
  O     -889.970    -441.353     127.258
  H     -889.600    -441.653     126.420
  H     -889.125    -436.926     127.841
  H     -890.782    -437.363     128.178
  H     -890.242    -437.194     126.525

 6  7  8  9  10  11  12  13  14  15  26  29  33  34 0
 6-311+G(2d,p)
 ****
 36  38  39  40  41 0
 6-311+G(2d,p)
 ****
 1  2  3  4  5  16  17  18  19  20  21  22  23  24  25 0
 3-21G
 ****
 27  28  30  31  32  35  37  42  43  44  45  46  47 0
 3-21G
 ****
 48  49 0
 3-21G
 ****


