%nproc=1
%NoSave
%Mem=1900MB
#P OB98/GEN NMR

erre ene a

0 1
  C      412.461     720.752    -893.290
  O      411.528     720.160    -894.200
  P      412.106     719.443    -895.510
  C      411.231     717.056    -894.890
  O      411.213     718.135    -895.810
  C      409.833     716.417    -894.770
  O      408.924     717.257    -894.000
  C      409.136     716.183    -896.140
  O      409.595     714.994    -896.760
  C      407.697     716.073    -895.690
  O      407.451     714.721    -895.210
  C      407.589     717.093    -894.550
  N      403.678     719.444    -896.730
  C      403.832     718.147    -896.370
  N      402.801     717.286    -896.640
  N      404.922     717.630    -895.830
  C      405.871     718.563    -895.600
  C      405.816     719.933    -895.870
  C      404.612     720.463    -896.510
  O      404.419     721.616    -896.830
  N      406.981     720.584    -895.480
  C      407.720     719.598    -894.950
  N      407.087     718.384    -895.020
  O      413.466     718.789    -894.960
  O      412.373     720.352    -896.680
  H      406.492     714.655    -895.000
  H      414.120     718.696    -895.680
  H      402.824     719.777    -897.150
  H      408.701     719.767    -894.530
  H      406.924     716.736    -893.750
  H      406.995     716.218    -896.540
  H      401.925     717.623    -897.060
  H      409.262     717.054    -896.780
  H      402.888     716.334    -896.400
  H      409.953     715.452    -894.260
  H      411.554     717.395    -893.890
  H      411.973     716.321    -895.220
  P      409.323     714.818    -898.320
  C      411.789     714.916    -899.160
  O      410.634     714.107    -898.920
  O      409.401     716.312    -898.880
  O      408.023     714.133    -898.670
  H      408.791     716.424    -899.620
  H      412.631     714.239    -899.420
  H      412.042     715.485    -898.270
  H      411.620     715.612    -900.000
  H      411.931     721.189    -892.470
  H      413.022     721.510    -893.797
  H      413.128     720.000    -892.923

 3  4  5  6  7  8  9  10  11  12  23  26  30  31 0
 6-311+G(2d,p)
 ****
 33  35  36  37  38 0
 6-311+G(2d,p)
 ****
 1  2  13  14  15  16  17  18  19  20  21  22  24  25 0
 3-21G
 ****
 27  28  29  32  34  39  40  41  42  43  44  45  46  47  48  49 0
 3-21G
 ****


