%nproc=1
%NoSave
%Mem=1900MB
#P OB98/GEN NMR

erre ene a

0 1
  C      534.551    -417.953     -53.543
  O      533.737    -418.401     -54.608
  H      534.384    -418.595     -52.675
  H      534.271    -416.929     -53.277
  H      535.610    -417.991     -53.813
  P      534.097    -417.869     -56.079
  C      531.906    -416.484     -56.175
  O      532.705    -417.488     -56.782
  C      530.419    -416.801     -56.354
  O      530.135    -418.071     -55.689
  C      529.472    -415.742     -55.758
  O      528.320    -415.626     -56.607
  C      529.038    -416.380     -54.451
  O      527.793    -415.862     -53.989
  C      528.982    -417.848     -54.856
  N      525.924    -420.190     -51.637
  C      525.650    -419.540     -52.823
  N      524.349    -419.446     -53.191
  N      526.569    -419.022     -53.595
  C      527.831    -419.208     -53.121
  C      528.233    -419.823     -51.961
  C      527.201    -420.381     -51.108
  O      527.376    -420.944     -50.036
  N      529.598    -419.747     -51.814
  C      530.010    -419.067     -52.868
  N      528.975    -418.718     -53.691
  O      534.547    -419.209     -56.832
  O      535.153    -416.815     -56.137
  H      527.884    -414.893     -53.890
  H      535.517    -419.301     -56.794
  H      525.175    -420.555     -51.073
  H      531.036    -418.791     -53.069
  H      528.085    -418.095     -55.442
  H      529.797    -416.209     -53.680
  H      523.586    -419.845     -52.665
  H      529.932    -414.760     -55.622
  H      524.139    -419.009     -54.078
  H      530.216    -416.945     -57.419
  H      532.118    -415.519     -56.648
  H      532.158    -416.413     -55.113
  P      528.010    -414.195     -57.264
  C      525.482    -414.167     -56.644
  O      526.460    -414.145     -57.673
  O      528.762    -414.273     -58.673
  O      528.495    -413.039     -56.450
  H      529.109    -413.398     -58.913
  H      524.505    -414.128     -57.079
  H      525.620    -413.322     -56.002
  H      525.583    -415.067     -56.075

 6  7  8  9  10  11  12  13  14  15  26  29  33  34 0
 6-311+G(2d,p)
 ****
 36  38  39  40  41 0
 6-311+G(2d,p)
 ****
 1  2  3  4  5  16  17  18  19  20  21  22  23  24  25 0
 3-21G
 ****
 27  28  30  31  32  35  37  42  43  44  45  46  47 0
 3-21G
 ****
 48  49 0
 3-21G
 ****


