%nproc=1
%NoSave
%Mem=1900MB
#P OB98/GEN NMR

erre ene a

0 1
  C      140.016    -489.507      53.506
  O      140.895    -488.764      54.364
  P      140.837    -487.162      54.290
  C      138.997    -485.563      55.197
  O      139.882    -486.643      55.470
  C      138.335    -485.082      56.495
  O      137.606    -486.147      57.149
  C      139.320    -484.556      57.527
  O      139.674    -483.201      57.275
  C      138.486    -484.641      58.801
  O      137.596    -483.513      58.878
  C      137.698    -485.940      58.588
  N      139.129    -488.002      62.979
  C      138.490    -486.806      62.726
  N      138.178    -486.045      63.803
  N      138.180    -486.388      61.525
  C      138.534    -487.254      60.554
  C      139.173    -488.472      60.672
  C      139.519    -488.913      62.008
  O      140.097    -489.964      62.295
  N      139.368    -489.064      59.454
  C      138.836    -488.218      58.589
  N      138.330    -487.099      59.202
  O      139.959    -486.896      52.976
  O      142.179    -486.503      54.201
  H      138.160    -482.714      58.912
  H      140.204    -486.039      52.579
  H      139.344    -488.273      63.928
  H      138.789    -488.378      57.517
  H      136.676    -485.879      58.978
  H      139.107    -484.620      59.703
  H      138.340    -486.326      64.755
  H      140.203    -485.208      57.605
  H      137.683    -485.175      63.635
  H      137.624    -484.286      56.238
  H      138.231    -485.869      54.482
  H      139.559    -484.760      54.713
  P      141.111    -482.910      56.612
  C      142.009    -482.978      54.176
  O      140.991    -483.361      55.081
  O      142.037    -484.036      57.278
  O      141.643    -481.541      56.856
  H      142.954    -483.703      57.369
  H      141.847    -483.504      53.224
  H      142.997    -483.244      54.565
  H      141.961    -481.898      53.989
  H      140.165    -490.555      53.664
  H      140.227    -489.267      52.485
  H      139.001    -489.253      53.730

 3  4  5  6  7  8  9  10  11  12  23  26  30  31 0
 6-311+G(2d,p)
 ****
 33  35  36  37  38 0
 6-311+G(2d,p)
 ****
 1  2  13  14  15  16  17  18  19  20  21  22  24  25 0
 3-21G
 ****
 27  28  29  32  34  39  40  41  42  43  44  45  46  47  48  49 0
 3-21G
 ****


