%nproc=1
%NoSave
%Mem=1900MB
#P OB98/GEN NMR

erre ene a

0 1
  C     -189.134     641.019    -415.099
  O     -187.866     641.203    -414.490
  P     -186.503     640.811    -415.242
  C     -185.055     642.616    -414.086
  O     -185.327     641.232    -414.241
  C     -183.643     642.824    -413.512
  O     -183.640     642.410    -412.129
  C     -182.546     642.037    -414.237
  O     -181.352     642.844    -414.223
  C     -182.370     640.814    -413.366
  O     -181.110     640.191    -413.530
  C     -182.591     641.420    -411.962
  N     -182.967     640.411    -410.971
  C     -181.940     639.909    -410.168
  O     -180.772     640.272    -410.312
  N     -182.259     638.989    -409.194
  C     -183.483     638.557    -409.105
  N     -183.774     637.679    -408.095
  C     -184.568     638.991    -410.007
  C     -184.244     639.927    -410.883
  O     -186.374     641.355    -416.625
  O     -186.448     639.215    -415.163
  H     -180.438     640.709    -413.026
  H     -186.954     638.774    -415.891
  H     -185.565     638.575    -409.901
  H     -184.973     640.327    -411.564
  H     -181.688     641.960    -411.636
  H     -183.141     640.071    -413.601
  H     -182.808     641.806    -415.271
  H     -183.420     643.894    -413.534
  H     -183.047     637.533    -407.397
  H     -185.791     643.031    -413.390
  H     -184.725     637.561    -407.760
  H     -185.162     643.124    -415.049
  P     -180.996     643.692    -415.549
  C     -179.969     645.420    -413.883
  O     -179.874     644.767    -415.143
  O     -182.296     644.624    -415.695
  O     -180.770     642.919    -416.798
  H     -182.402     644.877    -416.632
  H     -179.122     646.103    -413.769
  H     -179.923     644.681    -413.071
  H     -180.897     645.984    -413.819
  H     -189.902     641.343    -414.428
  H     -189.273     639.983    -415.327
  H     -189.183     641.592    -416.001

 3  4  5  6  7  8  9  10  11  12  13  23  27  28  29  30  32 0
 6-311+G(2d,p)
 ****
 34  35 0
 6-311+G(2d,p)
 ****
 1  2  14  15  16  17  18  19  20  21  22  24  25  26 0
 3-21G
 ****
 31  33  36  37  38  39  40  41  42  43  44  45  46 0
 3-21G
 ****


