%nproc=1
%NoSave
%Mem=1900MB
#P OB98/GEN NMR

erre ene a

0 1
  C     -134.191     172.403     192.994
  O     -135.199     171.415     192.961
  H     -133.746     172.417     193.991
  H     -134.622     173.387     192.790
  H     -133.406     172.183     192.264
  P     -135.889     171.061     191.560
  C     -134.156     169.701     190.212
  O     -135.275     169.658     191.085
  C     -134.370     168.774     189.009
  O     -133.297     169.009     188.047
  C     -134.345     167.271     189.355
  O     -135.203     166.610     188.415
  C     -132.885     166.944     189.100
  O     -132.636     165.561     189.082
  C     -132.677     167.729     187.798
  N     -131.290     167.900     187.386
  C     -130.597     166.770     186.957
  O     -131.075     165.639     186.897
  N     -129.295     166.978     186.588
  C     -128.638     168.173     186.590
  O     -127.479     168.302     186.218
  C     -129.418     169.327     187.060
  C     -130.688     169.143     187.424
  O     -135.865     172.141     190.532
  O     -137.388     170.669     191.966
  H     -137.985     171.415     191.774
  H     -131.682     165.411     188.907
  H     -128.780     166.172     186.271
  H     -128.925     170.288     187.085
  H     -131.292     169.977     187.765
  H     -133.236     167.254     186.983
  H     -132.266     167.348     189.904
  H     -134.687     167.059     190.372
  H     -135.308     169.050     188.512
  H     -133.273     169.378     190.773
  H     -134.006     170.730     189.872
  P     -136.396     165.627     188.845
  C     -138.461     167.126     189.278
  O     -137.780     166.279     188.359
  O     -136.383     165.255     190.290
  O     -136.234     164.333     187.915
  H     -136.617     163.558     188.366
  H     -139.361     167.489     188.828
  H     -137.832     167.952     189.535
  H     -138.702     166.573     190.162

 6  7  8  9  10  11  12  13  14  15  16  27  31  32  33  34  35 0
 6-311+G(2d,p)
 ****
 36  37 0
 6-311+G(2d,p)
 ****
 1  2  3  4  5  17  18  19  20  21  22  23  24  25 0
 3-21G
 ****
 26  28  29  30  38  39  40  41  42  43  44  45 0
 3-21G
 ****


