%nproc=1
%NoSave
%Mem=1900MB
#P OB98/GEN NMR

erre ene a

0 1
  C     -157.094     475.444    -109.167
  O     -156.496     476.592    -108.589
  P     -155.036     476.427    -107.948
  C     -154.110     478.752    -108.679
  O     -154.058     477.333    -108.842
  C     -153.335     479.443    -109.798
  O     -153.856     479.047    -111.079
  C     -153.430     480.963    -109.764
  O     -152.587     481.502    -108.771
  C     -153.016     481.318    -111.193
  O     -151.590     481.428    -111.300
  C     -153.538     480.112    -112.009
  N     -154.693     480.448    -112.831
  C     -154.403     480.966    -114.102
  O     -153.225     481.116    -114.451
  N     -155.443     481.323    -114.924
  C     -156.660     481.180    -114.508
  N     -157.658     481.549    -115.365
  C     -157.009     480.666    -113.171
  C     -155.991     480.332    -112.385
  O     -154.632     474.936    -108.348
  O     -154.972     476.661    -106.473
  H     -151.353     482.245    -110.816
  H     -153.987     474.569    -107.712
  H     -158.050     480.577    -112.872
  H     -156.150     479.943    -111.390
  H     -152.752     479.723    -112.673
  H     -153.430     482.274    -111.515
  H     -154.473     481.281    -109.602
  H     -152.281     479.118    -109.738
  H     -157.383     481.910    -116.274
  H     -153.664     479.020    -107.722
  H     -158.640     481.459    -115.145
  H     -155.158     479.073    -108.680
  P     -153.261     482.352    -107.599
  C     -151.591     481.375    -105.915
  O     -152.949     481.522    -106.256
  O     -154.819     482.059    -107.821
  O     -152.958     483.814    -107.556
  H     -155.353     482.608    -107.217
  H     -151.524     480.930    -104.915
  H     -151.078     482.335    -105.916
  H     -151.100     480.698    -106.626
  H     -158.059     475.700    -109.552
  H     -157.198     474.683    -108.422
  H     -156.477     475.083    -109.963

 3  4  5  6  7  8  9  10  11  12  13  21  23  27  28  29  30  32 0
 6-311+G(2d,p)
 ****
 34  35 0
 6-311+G(2d,p)
 ****
 1  2  14  15  16  17  18  19  20  22  24  25  26 0
 3-21G
 ****
 31  33  36  37  38  39  40  41  42  43  44  45  46 0
 3-21G
 ****


