%nproc=1
%NoSave
%Mem=1900MB
#P OB98/GEN NMR

erre ene a

0 1
  C     -116.447     174.040     178.478
  O     -115.842     174.020     177.199
  H     -116.743     173.021     178.741
  H     -117.338     174.673     178.463
  H     -115.738     174.407     179.224
  P     -115.312     175.428     176.638
  C     -117.508     175.798     175.319
  O     -116.649     176.266     176.350
  C     -116.804     175.868     173.965
  O     -117.548     175.144     172.970
  C     -116.642     177.280     173.415
  O     -115.530     177.929     174.009
  C     -116.402     176.984     171.943
  O     -115.030     176.589     171.743
  C     -117.335     175.786     171.685
  N     -119.866     176.928     167.368
  C     -118.547     176.811     167.629
  N     -117.945     176.549     168.809
  C     -118.852     176.399     169.786
  C     -120.231     176.489     169.668
  C     -120.741     176.759     168.386
  N     -122.088     176.866     168.121
  N     -120.842     176.281     170.888
  C     -119.851     176.013     171.715
  N     -118.625     176.108     171.106
  O     -114.325     175.351     175.525
  O     -114.768     176.107     177.984
  H     -114.474     177.379     171.882
  H     -115.355     175.901     178.732
  H     -117.884     176.945     166.778
  H     -119.966     175.733     172.755
  H     -116.872     175.047     171.021
  H     -116.576     177.857     171.309
  H     -117.566     177.859     173.518
  H     -115.831     175.374     174.068
  H     -118.429     176.390     175.291
  H     -122.357     177.228     167.220
  H     -122.728     176.864     168.902
  H     -117.770     174.762     175.555
  P     -115.538     179.515     174.244
  C     -114.056     179.966     172.192
  O     -115.321     180.191     172.804
  O     -114.613     180.002     175.303
  O     -117.062     179.863     174.579
  H     -117.108     180.554     175.268
  H     -114.026     180.460     171.244
  H     -113.910     178.915     172.051
  H     -113.282     180.353     172.821

 6  7  8  9  10  11  12  13  14  15  25  28  32  33  34  35 0
 6-311+G(2d,p)
 ****
 36  39  40 0
 6-311+G(2d,p)
 ****
 1  2  3  4  5  16  17  18  19  20  21  22  23  24 0
 3-21G
 ****
 26  27  29  30  31  37  38  41  42  43  44  45  46  47 0
 3-21G
 ****
 48 0
 3-21G
 ****


