%nproc=1
%NoSave
%Mem=1900MB
#P OB98/GEN NMR

erre ene a

0 1
  C     -170.875    -331.328    -257.474
  O     -170.458    -330.503    -258.544
  H     -170.059    -331.411    -256.751
  H     -171.123    -332.328    -257.840
  H     -171.747    -330.891    -256.977
  P     -171.490    -330.345    -259.765
  C     -172.313    -328.226    -258.482
  O     -172.659    -329.428    -259.153
  C     -172.501    -327.040    -259.421
  O     -173.886    -326.909    -259.808
  C     -172.121    -325.695    -258.810
  O     -170.721    -325.471    -258.796
  C     -172.835    -324.751    -259.763
  O     -172.096    -324.660    -260.995
  C     -174.176    -325.494    -259.971
  N     -175.217    -325.071    -259.033
  C     -176.006    -323.980    -259.419
  O     -175.809    -323.412    -260.493
  N     -176.984    -323.533    -258.563
  C     -177.167    -324.128    -257.426
  N     -178.141    -323.634    -256.610
  C     -176.372    -325.289    -256.985
  C     -175.427    -325.702    -257.825
  O     -172.188    -331.783    -259.859
  O     -170.912    -329.857    -261.051
  H     -172.568    -324.023    -261.560
  H     -172.934    -331.752    -260.506
  H     -176.555    -325.745    -256.021
  H     -174.802    -326.548    -257.568
  H     -174.546    -325.352    -260.992
  H     -172.932    -323.737    -259.369
  H     -172.550    -325.573    -257.809
  H     -171.924    -327.238    -260.336
  H     -178.627    -322.800    -256.911
  H     -171.267    -328.297    -258.165
  H     -178.232    -323.916    -255.640
  H     -172.946    -328.094    -257.599
  P     -170.132    -324.514    -257.643
  C     -169.245    -326.397    -256.083
  O     -170.187    -325.347    -256.271
  O     -171.287    -323.423    -257.458
  O     -168.809    -323.886    -257.959
  H     -170.911    -322.536    -257.304
  H     -169.406    -326.855    -255.129
  H     -168.253    -325.998    -256.124
  H     -169.367    -327.128    -256.855

 6  7  8  9  10  11  12  13  14  15  16  26  30  31  32  33  35 0
 6-311+G(2d,p)
 ****
 37  38 0
 6-311+G(2d,p)
 ****
 1  2  3  4  5  17  18  19  20  21  22  23  24  25 0
 3-21G
 ****
 27  28  29  34  36  39  40  41  42  43  44  45  46 0
 3-21G
 ****


