%nproc=1
%NoSave
%Mem=1900MB
#P OB98/GEN NMR

erre ene a

0 1
  C      709.707     715.896     141.722
  O      709.040     715.103     142.707
  P      709.904     714.607     143.964
  C      709.059     716.047     145.988
  O      710.033     715.836     144.984
  C      709.314     717.371     146.737
  O      710.509     717.213     147.540
  C      709.574     718.582     145.857
  O      709.369     719.767     146.627
  C      711.049     718.431     145.546
  O      711.624     719.655     145.071
  C      711.617     717.894     146.880
  N      712.756     716.975     146.711
  C      713.974     717.495     146.289
  O      714.172     718.684     146.056
  N      714.986     716.597     146.116
  C      714.920     715.252     146.349
  O      715.833     714.477     146.085
  C      713.655     714.773     146.929
  C      712.642     715.639     147.071
  O      711.385     714.435     143.367
  O      709.399     713.346     144.584
  H      712.512     719.421     144.724
  H      711.588     713.483     143.258
  H      715.857     716.948     145.748
  H      713.580     713.725     147.189
  H      711.693     715.290     147.475
  H      711.955     718.722     147.523
  H      711.181     717.691     144.754
  H      708.964     718.621     144.948
  H      708.483     717.556     147.424
  H      709.066     715.210     146.687
  H      708.061     716.073     145.538
  P      708.185     720.758     146.184
  C      706.857     719.709     148.122
  O      706.839     720.147     146.778
  O      708.162     721.138     144.738
  O      708.425     722.041     147.126
  H      707.975     722.807     146.743
  H      705.865     719.813     148.552
  H      707.571     720.296     148.716
  H      707.156     718.656     148.154
  H      709.017     716.155     140.946
  H      710.520     715.338     141.305
  H      710.083     716.788     142.177

 3  4  5  6  7  8  9  10  11  12  13  23  28  29  30  31  32 0
 6-311+G(2d,p)
 ****
 33  34 0
 6-311+G(2d,p)
 ****
 1  2  14  15  16  17  18  19  20  21  22  24  25  26  27 0
 3-21G
 ****
 35  36  37  38  39  40  41  42  43  44  45 0
 3-21G
 ****


