%nproc=1
%NoSave
%Mem=1900MB
#P OB98/GEN NMR

erre ene a

0 1
  C       63.075      23.572    -155.501
  O       63.606      22.865    -154.399
  H       62.431      24.379    -155.143
  H       63.900      24.009    -156.070
  H       62.509      22.905    -156.157
  P       62.608      21.897    -153.599
  C       63.667      19.778    -154.658
  O       62.491      20.550    -154.468
  C       63.425      18.683    -155.695
  O       62.749      19.272    -156.842
  C       64.705      18.000    -156.203
  O       64.436      16.605    -156.375
  C       64.918      18.633    -157.566
  O       65.663      17.802    -158.449
  C       63.479      18.870    -158.014
  N       65.409      20.232    -162.515
  C       65.426      19.062    -161.844
  N       64.837      18.768    -160.668
  C       64.121      19.813    -160.220
  C       64.003      21.066    -160.796
  C       64.707      21.267    -161.996
  N       64.753      22.475    -162.653
  N       63.226      21.889    -160.004
  C       62.905      21.154    -158.958
  N       63.424      19.893    -159.043
  O       61.190      22.609    -153.819
  O       62.918      21.705    -152.153
  H       65.475      18.069    -159.369
  H       61.047      23.276    -153.123
  H       65.995      18.259    -162.306
  H       62.331      21.490    -158.107
  H       63.009      17.966    -158.421
  H       65.456      19.581    -157.449
  H       65.568      18.131    -155.542
  H       62.739      17.944    -155.265
  H       63.946      19.311    -153.708
  H       65.369      22.554    -163.447
  H       64.326      23.282    -162.222
  H       64.482      20.434    -154.981
  P       64.860      15.620    -155.184
  C       62.458      14.667    -154.864
  O       63.571      15.332    -154.278
  O       65.771      16.545    -154.249
  O       65.597      14.403    -155.640
  H       66.468      16.014    -153.824
  H       61.686      14.552    -154.132
  H       62.763      13.703    -155.216
  H       62.088      15.246    -155.685

 6  7  8  9  10  11  12  13  14  15  25  28  32  33  34  35 0
 6-311+G(2d,p)
 ****
 36  39  40 0
 6-311+G(2d,p)
 ****
 1  2  3  4  5  16  17  18  19  20  21  22  23  24 0
 3-21G
 ****
 26  27  29  30  31  37  38  41  42  43  44  45  46  47 0
 3-21G
 ****
 48 0
 3-21G
 ****


