%nproc=1
%NoSave
%Mem=1900MB
#P OB98/GEN NMR

erre ene a

0 1
  C     -129.319     257.701     223.832
  O     -130.646     257.322     223.528
  H     -129.336     258.356     224.707
  H     -128.883     258.251     222.994
  H     -128.708     256.824     224.063
  P     -130.899     256.276     222.339
  C     -133.061     257.530     221.739
  O     -132.479     256.274     222.054
  C     -134.341     257.747     222.543
  O     -133.987     258.238     223.861
  C     -135.303     258.757     221.908
  O     -136.640     258.305     222.121
  C     -135.059     260.023     222.705
  O     -136.196     260.885     222.713
  C     -134.706     259.465     224.083
  N     -134.861     263.038     227.649
  C     -135.861     262.222     227.162
  N     -137.096     262.396     227.680
  N     -135.671     261.314     226.241
  C     -134.385     261.237     225.820
  C     -133.306     261.988     226.223
  C     -133.534     263.000     227.234
  O     -132.690     263.761     227.695
  N     -132.169     261.630     225.542
  C     -132.562     260.668     224.728
  N     -133.900     260.400     224.851
  O     -130.307     254.918     222.544
  O     -130.293     257.000     221.049
  H     -136.956     260.355     223.037
  H     -129.407     256.650     220.840
  H     -135.064     263.728     228.352
  H     -131.925     260.141     224.029
  H     -135.597     259.243     224.684
  H     -134.213     260.574     222.276
  H     -137.315     263.063     228.404
  H     -135.124     258.902     220.838
  H     -137.843     261.792     227.355
  H     -134.831     256.775     222.685
  H     -133.291     257.544     220.668
  H     -132.342     258.328     221.956
  P     -137.671     258.335     220.894
  C     -139.736     258.053     222.405
  O     -138.985     257.520     221.321
  O     -137.100     257.971     219.563
  O     -138.187     259.854     220.904
  H     -138.416     260.116     219.990
  H     -140.582     257.426     222.595
  H     -140.070     259.039     222.157
  H     -139.120     258.095     223.279

 6  7  8  9  10  11  12  13  14  15  26  29  33  34 0
 6-311+G(2d,p)
 ****
 36  38  39  40  41 0
 6-311+G(2d,p)
 ****
 1  2  3  4  5  16  17  18  19  20  21  22  23  24  25 0
 3-21G
 ****
 27  28  30  31  32  35  37  42  43  44  45  46  47 0
 3-21G
 ****
 48  49 0
 3-21G
 ****


