%nproc=1
%NoSave
%Mem=1900MB
#P OB98/GEN NMR

erre ene a

0 1
  C       86.027     298.927    -689.834
  O       85.245     298.030    -690.605
  H       86.874     298.377    -689.419
  H       85.442     299.342    -689.015
  H       86.414     299.735    -690.467
  P       83.911     298.585    -691.296
  C       82.434     296.713    -690.293
  O       82.945     297.317    -691.477
  C       81.571     295.498    -690.650
  O       80.332     295.917    -691.250
  C       82.227     294.535    -691.646
  O       83.134     293.670    -690.983
  C       81.002     293.804    -692.167
  O       80.556     292.835    -691.189
  C       79.975     294.952    -692.266
  N       79.002     294.457    -697.228
  C       79.050     293.503    -696.241
  N       78.846     292.228    -696.629
  N       79.299     293.768    -694.980
  C       79.555     295.068    -694.754
  C       79.549     296.116    -695.648
  C       79.215     295.817    -697.024
  O       79.128     296.645    -697.925
  N       79.942     297.294    -695.061
  C       80.141     296.971    -693.798
  N       79.926     295.631    -693.550
  O       84.102     299.389    -692.544
  O       83.191     299.427    -690.141
  H       80.317     293.330    -690.382
  H       83.449     300.369    -690.170
  H       78.815     294.202    -698.184
  H       80.431     297.665    -693.013
  H       78.953     294.606    -692.053
  H       81.193     293.265    -693.093
  H       78.807     291.950    -697.598
  H       82.698     295.070    -692.474
  H       78.940     291.499    -695.927
  H       81.323     294.974    -689.710
  H       81.833     297.463    -689.770
  H       83.261     296.395    -689.646
  P       84.039     292.613    -691.798
  C       83.195     290.652    -690.331
  O       84.312     291.409    -690.765
  O       85.259     293.188    -692.431
  O       83.010     291.942    -692.827
  H       82.907     292.457    -693.663
  H       83.521     289.891    -689.653
  H       82.722     290.197    -691.176
  H       82.498     291.296    -689.836

 6  7  8  9  10  11  12  13  14  15  26  29  33  34 0
 6-311+G(2d,p)
 ****
 36  38  39  40  41 0
 6-311+G(2d,p)
 ****
 1  2  3  4  5  16  17  18  19  20  21  22  23  24  25 0
 3-21G
 ****
 27  28  30  31  32  35  37  42  43  44  45  46  47 0
 3-21G
 ****
 48  49 0
 3-21G
 ****


