%nproc=1
%NoSave
%Mem=1900MB
#P OB98/GEN NMR

erre ene a

0 1
  C      342.832    -431.815    1277.767
  O      342.162    -430.919    1278.635
  H      343.888    -431.833    1278.031
  H      342.738    -431.468    1276.731
  H      342.425    -432.830    1277.859
  P      340.563    -430.818    1278.569
  C      339.184    -430.757    1276.378
  O      340.207    -430.133    1277.160
  C      338.648    -429.762    1275.360
  O      339.661    -429.434    1274.386
  C      337.460    -430.302    1274.548
  O      336.276    -430.280    1275.311
  C      337.469    -429.364    1273.358
  O      336.839    -428.112    1273.688
  C      338.989    -429.151    1273.136
  N      339.522    -429.987    1272.051
  C      339.761    -429.348    1270.844
  O      339.516    -428.159    1270.654
  N      340.266    -430.127    1269.828
  C      340.428    -431.496    1269.900
  O      340.808    -432.163    1268.939
  C      340.148    -432.119    1271.190
  C      339.697    -431.353    1272.193
  O      339.899    -430.210    1279.751
  O      340.101    -432.336    1278.340
  H      337.162    -427.468    1273.014
  H      339.737    -432.688    1279.188
  H      340.437    -429.689    1268.941
  H      340.282    -433.191    1271.274
  H      339.474    -431.800    1273.160
  H      339.199    -428.098    1272.895
  H      336.958    -429.776    1272.500
  H      337.681    -431.331    1274.191
  H      338.364    -428.837    1275.883
  H      338.377    -431.072    1277.052
  H      339.610    -431.642    1275.897
  P      335.034    -431.206    1274.885
  C      333.466    -431.447    1272.862
  O      334.433    -430.632    1273.517
  O      334.030    -431.460    1275.956
  O      335.735    -432.581    1274.429
  H      335.410    -433.313    1275.005
  H      333.140    -430.963    1271.966
  H      332.629    -431.598    1273.511
  H      333.903    -432.393    1272.618

 6  7  8  9  10  11  12  13  14  15  16  26  31  32  33  34  35 0
 6-311+G(2d,p)
 ****
 36  37 0
 6-311+G(2d,p)
 ****
 1  2  3  4  5  17  18  19  20  21  22  23  24  25 0
 3-21G
 ****
 27  28  29  30  38  39  40  41  42  43  44  45 0
 3-21G
 ****


