%nproc=1
%NoSave
%Mem=1900MB
#P OB98/GEN NMR

erre ene a

0 1
  C      195.009     309.360     -19.956
  O      194.562     308.014     -19.967
  P      194.942     307.033     -21.169
  C      194.878     307.261     -23.784
  O      194.373     307.651     -22.524
  C      194.146     308.050     -24.877
  O      194.312     309.467     -24.663
  C      194.687     307.717     -26.268
  O      193.905     306.704     -26.876
  C      194.611     309.053     -26.980
  O      193.275     309.290     -27.462
  C      194.951     310.038     -25.837
  N      196.373     310.268     -25.517
  C      197.138     311.099     -26.333
  O      196.693     311.694     -27.307
  N      198.463     311.206     -25.994
  C      199.065     310.612     -24.920
  O      200.280     310.517     -24.768
  C      198.157     309.979     -23.956
  C      196.882     309.817     -24.302
  O      193.997     305.767     -20.913
  O      196.383     306.647     -21.251
  H      193.275     310.166     -27.888
  H      194.487     305.055     -20.464
  H      199.053     311.693     -26.661
  H      198.569     309.617     -23.025
  H      196.197     309.316     -23.623
  H      194.500     311.021     -26.017
  H      195.258     309.069     -27.854
  H      195.741     307.414     -26.201
  H      193.074     307.824     -24.823
  H      194.736     306.184     -23.928
  H      195.956     307.455     -23.834
  P      194.616     305.609     -27.801
  C      196.253     305.770     -29.767
  O      195.258     306.434     -29.019
  O      193.766     304.447     -28.196
  O      195.880     305.151     -26.929
  H      195.669     304.320     -26.452
  H      196.475     306.359     -30.658
  H      195.907     304.778     -30.072
  H      197.163     305.676     -29.171
  H      194.651     309.847     -19.073
  H      194.634     309.867     -20.820
  H      196.079     309.381     -19.966

 3  4  5  6  7  8  9  10  11  12  13  23  28  29  30  31  32 0
 6-311+G(2d,p)
 ****
 33  34 0
 6-311+G(2d,p)
 ****
 1  2  14  15  16  17  18  19  20  21  22  24  25  26  27 0
 3-21G
 ****
 35  36  37  38  39  40  41  42  43  44  45 0
 3-21G
 ****


