%nproc=1
%NoSave
%Mem=1900MB
#P OB98/GEN NMR

erre ene a

0 1
  C      170.393     -97.635      66.830
  O      170.526     -98.488      67.949
  H      171.383     -97.379      66.445
  H      169.839     -98.163      66.049
  H      169.849     -96.726      67.096
  P      171.038     -97.827      69.318
  C      169.466     -98.887      71.091
  O      170.746     -98.904      70.476
  C      169.191    -100.219      71.786
  O      169.122    -101.264      70.775
  C      170.259    -100.629      72.813
  O      169.604    -101.241      73.928
  C      171.065    -101.682      72.074
  O      171.715    -102.593      72.953
  C      169.988    -102.327      71.207
  N      171.725    -106.834      69.620
  C      170.950    -106.484      70.667
  N      170.486    -105.260      70.989
  C      170.844    -104.358      70.060
  C      171.624    -104.564      68.936
  C      172.092    -105.875      68.737
  N      172.938    -106.228      67.711
  N      171.818    -103.376      68.258
  C      171.187    -102.466      68.976
  N      170.585    -103.012      70.074
  O      169.942     -96.688      69.580
  O      172.422     -97.275      69.288
  H      172.170    -103.275      72.421
  H      170.208     -95.869      69.125
  H      170.675    -107.291      71.343
  H      171.161    -101.407      68.764
  H      169.387    -103.062      71.757
  H      171.828    -101.193      71.458
  H      170.880     -99.796      73.161
  H      168.203    -100.166      72.259
  H      168.703     -98.724      70.323
  H      173.307    -107.166      67.710
  H      173.307    -105.505      67.111
  H      169.422     -98.065      71.812
  P      169.722    -100.506      75.348
  C      167.351    -101.461      75.840
  O      168.644    -101.147      76.344
  O      169.134     -99.047      75.056
  O      171.116    -100.441      75.881
  H      169.586     -98.384      75.608
  H      166.754    -101.878      76.624
  H      167.441    -102.171      75.044
  H      166.885    -100.570      75.473

 6  7  8  9  10  11  12  13  14  15  25  28  32  33  34  35 0
 6-311+G(2d,p)
 ****
 36  39  40 0
 6-311+G(2d,p)
 ****
 1  2  3  4  5  16  17  18  19  20  21  22  23  24 0
 3-21G
 ****
 26  27  29  30  31  37  38  41  42  43  44  45  46  47 0
 3-21G
 ****
 48 0
 3-21G
 ****


