%nproc=1
%NoSave
%Mem=1900MB
#P OB98/GEN NMR

erre ene a

0 1
  C      525.158    -751.733    -329.748
  O      525.861    -750.509    -329.906
  H      524.117    -751.520    -329.522
  H      525.602    -752.275    -328.901
  H      525.222    -752.339    -330.652
  P      527.290    -750.563    -330.616
  C      528.130    -748.990    -332.509
  O      527.566    -749.087    -331.212
  C      527.614    -747.731    -333.220
  O      526.163    -747.756    -333.237
  C      528.046    -746.423    -332.549
  O      528.310    -745.440    -333.574
  C      526.813    -745.998    -331.794
  O      526.783    -744.587    -331.542
  C      525.725    -746.479    -332.754
  N      522.577    -743.882    -329.822
  C      523.720    -743.492    -330.479
  N      524.139    -742.210    -330.290
  N      524.408    -744.272    -331.271
  C      523.887    -745.515    -331.385
  C      522.770    -746.035    -330.782
  C      522.016    -745.161    -329.902
  O      521.001    -745.453    -329.259
  N      522.592    -747.358    -331.108
  C      523.627    -747.647    -331.900
  N      524.427    -746.544    -332.084
  O      527.013    -751.453    -331.923
  O      528.397    -751.131    -329.791
  H      526.091    -744.428    -330.878
  H      527.232    -752.380    -331.747
  H      522.098    -743.237    -329.203
  H      523.833    -748.608    -332.321
  H      525.598    -745.810    -333.617
  H      526.763    -746.515    -330.845
  H      523.646    -741.534    -329.728
  H      528.926    -746.514    -331.911
  H      524.944    -741.893    -330.801
  H      527.950    -747.763    -334.267
  H      527.830    -749.877    -333.094
  H      529.228    -748.969    -332.430
  P      529.835    -745.013    -333.865
  C      531.143    -744.347    -336.007
  O      529.921    -744.288    -335.280
  O      530.564    -746.435    -334.113
  O      530.482    -744.296    -332.731
  H      531.464    -746.400    -333.777
  H      531.036    -743.815    -336.929
  H      531.388    -745.368    -336.211
  H      531.925    -743.902    -335.427

 6  7  8  9  10  11  12  13  14  15  26  29  33  34 0
 6-311+G(2d,p)
 ****
 36  38  39  40  41 0
 6-311+G(2d,p)
 ****
 1  2  3  4  5  16  17  18  19  20  21  22  23  24  25 0
 3-21G
 ****
 27  28  30  31  32  35  37  42  43  44  45  46  47 0
 3-21G
 ****
 48  49 0
 3-21G
 ****


