%nproc=1
%NoSave
%Mem=1900MB
#P OB98/GEN NMR

erre ene a

0 1
  C     -144.380    -177.338    -686.872
  O     -142.985    -177.581    -686.845
  P     -142.308    -178.289    -685.568
  C     -141.001    -176.954    -683.795
  O     -142.281    -177.223    -684.371
  C     -140.188    -176.045    -684.715
  O     -140.952    -174.870    -685.086
  C     -138.918    -175.497    -684.083
  O     -137.909    -176.494    -683.973
  C     -138.579    -174.352    -685.026
  O     -137.923    -174.842    -686.214
  C     -139.995    -173.818    -685.383
  N     -140.316    -172.592    -684.667
  C     -139.711    -171.432    -685.155
  O     -138.888    -171.487    -686.071
  N     -140.039    -170.227    -684.572
  C     -140.812    -170.205    -683.531
  N     -141.151    -168.992    -683.031
  C     -141.338    -171.435    -682.893
  C     -141.073    -172.577    -683.521
  O     -141.007    -178.966    -685.841
  O     -143.408    -179.347    -685.084
  H     -142.988    -180.217    -684.970
  H     -137.135    -175.344    -685.912
  H     -141.923    -171.372    -681.985
  H     -141.444    -173.524    -683.147
  H     -140.072    -173.641    -686.469
  H     -137.924    -173.612    -684.574
  H     -139.145    -175.094    -683.090
  H     -139.944    -176.607    -685.635
  H     -140.789    -168.172    -683.504
  H     -140.480    -177.909    -683.656
  H     -141.980    -168.849    -682.455
  H     -141.137    -176.489    -682.817
  P     -136.661    -176.150    -683.020
  C     -134.522    -176.055    -684.500
  O     -135.599    -175.338    -683.901
  O     -135.957    -177.588    -682.814
  O     -137.018    -175.530    -681.719
  H     -135.607    -177.647    -681.897
  H     -134.118    -175.452    -685.321
  H     -134.862    -177.011    -684.892
  H     -133.745    -176.212    -683.756
  H     -144.642    -176.864    -687.795
  H     -144.647    -176.700    -686.055
  H     -144.905    -178.266    -686.786

 3  4  5  6  7  8  9  10  11  12  13  24  27  28  29  30  32 0
 6-311+G(2d,p)
 ****
 34  35 0
 6-311+G(2d,p)
 ****
 1  2  14  15  16  17  18  19  20  21  22  23  25  26 0
 3-21G
 ****
 31  33  36  37  38  39  40  41  42  43  44  45  46 0
 3-21G
 ****


