%nproc=1
%NoSave
%Mem=1900MB
#P OB98/GEN NMR

erre ene a

0 1
  C     -127.347     195.752     -14.767
  O     -126.618     196.046     -15.944
  P     -127.117     195.548     -17.383
  C     -125.640     193.471     -17.025
  O     -126.927     193.952     -17.382
  C     -124.883     192.944     -18.243
  O     -123.631     192.339     -17.818
  C     -125.647     191.891     -19.065
  O     -125.264     192.092     -20.430
  C     -125.077     190.590     -18.538
  O     -125.294     189.497     -19.425
  C     -123.611     190.983     -18.317
  N     -122.927     190.070     -17.408
  C     -122.267     188.980     -17.985
  O     -122.340     188.784     -19.202
  N     -121.585     188.113     -17.174
  C     -121.648     188.256     -15.887
  N     -120.945     187.368     -15.129
  C     -122.433     189.318     -15.227
  C     -123.035     190.190     -16.044
  O     -126.502     196.250     -18.546
  O     -128.707     195.705     -17.309
  H     -126.263     189.383     -19.543
  H     -128.967     196.654     -17.421
  H     -122.506     189.366     -14.154
  H     -123.634     190.999     -15.653
  H     -123.066     190.996     -19.272
  H     -125.551     190.339     -17.579
  H     -126.734     191.955     -18.955
  H     -124.628     193.801     -18.882
  H     -120.407     186.667     -15.621
  H     -125.770     192.653     -16.311
  H     -120.860     187.442     -14.127
  H     -125.069     194.262     -16.526
  P     -126.303     191.859     -21.629
  C     -125.166     189.650     -22.237
  O     -126.382     190.282     -21.884
  O     -126.054     192.683     -22.852
  O     -127.734     192.197     -20.984
  H     -128.387     192.334     -21.697
  H     -125.276     188.569     -22.107
  H     -124.341     189.999     -21.605
  H     -124.933     189.863     -23.285
  H     -126.845     196.174     -13.922
  H     -127.418     194.691     -14.647
  H     -128.330     196.169     -14.842

 3  4  5  6  7  8  9  10  11  12  13  23  27  28  29  30  32 0
 6-311+G(2d,p)
 ****
 34  35 0
 6-311+G(2d,p)
 ****
 1  2  14  15  16  17  18  19  20  21  22  24  25  26 0
 3-21G
 ****
 31  33  36  37  38  39  40  41  42  43  44  45  46 0
 3-21G
 ****


