%nproc=1
%NoSave
%Mem=1900MB
#P OB98/GEN NMR

erre ene a

0 1
  C      -10.847     -31.426    -281.811
  O      -10.391     -30.509    -282.784
  H      -10.010     -32.055    -281.500
  H      -11.625     -32.065    -282.239
  H      -11.239     -30.899    -280.937
  P      -11.392     -29.334    -283.216
  C      -10.467     -26.904    -283.236
  O      -10.486     -28.176    -283.865
  C       -9.203     -26.143    -283.634
  O       -8.052     -27.007    -283.408
  C       -9.171     -25.713    -285.108
  O       -8.518     -24.442    -285.192
  C       -8.290     -26.767    -285.753
  O       -7.677     -26.345    -286.963
  C       -7.285     -27.032    -284.628
  N       -6.587     -28.307    -284.785
  C       -5.209     -28.309    -284.603
  O       -4.549     -27.339    -284.236
  N       -4.581     -29.501    -284.860
  C       -5.179     -30.648    -285.292
  O       -4.557     -31.679    -285.527
  C       -6.634     -30.582    -285.476
  C       -7.262     -29.432    -285.220
  O      -11.841     -28.711    -281.813
  O      -12.553     -29.756    -284.053
  H      -12.636     -29.166    -281.476
  H       -7.358     -25.430    -286.825
  H       -3.582     -29.519    -284.734
  H       -7.140     -31.471    -285.829
  H       -8.333     -29.342    -285.365
  H       -6.554     -26.218    -284.570
  H       -8.880     -27.665    -285.968
  H      -10.156     -25.656    -285.579
  H       -9.089     -25.278    -282.971
  H      -10.476     -27.036    -282.150
  H      -11.360     -26.343    -283.532
  P       -9.451     -23.134    -285.202
  C       -9.133     -20.698    -284.290
  O       -8.548     -21.956    -284.597
  O      -10.484     -23.484    -284.035
  O      -10.065     -22.866    -286.535
  H      -10.081     -23.983    -283.305
  H       -8.383     -20.042    -283.899
  H       -9.905     -20.832    -283.561
  H       -9.551     -20.273    -285.178

 6  7  8  9  10  11  12  13  14  15  16  27  31  32  33  34  35 0
 6-311+G(2d,p)
 ****
 36  37 0
 6-311+G(2d,p)
 ****
 1  2  3  4  5  17  18  19  20  21  22  23  24  25 0
 3-21G
 ****
 26  28  29  30  38  39  40  41  42  43  44  45 0
 3-21G
 ****


