%nproc=1
%NoSave
%Mem=1900MB
#P OB98/GEN NMR

erre ene a

0 1
  C      144.846    -386.099     119.848
  O      144.602    -386.830     118.638
  P      144.397    -385.984     117.293
  C      146.752    -386.356     116.204
  O      145.859    -385.475     116.874
  C      147.382    -385.650     115.005
  O      148.172    -384.516     115.435
  C      148.339    -386.514     114.201
  O      147.627    -387.455     113.400
  C      149.104    -385.458     113.417
  O      148.338    -385.026     112.280
  C      149.203    -384.312     114.449
  N      150.522    -384.211     115.063
  C      151.335    -383.169     114.586
  O      150.988    -382.407     113.694
  N      152.574    -383.080     115.160
  C      153.081    -383.910     116.123
  O      154.196    -383.764     116.617
  C      152.197    -385.006     116.544
  C      150.980    -385.106     116.008
  O      143.667    -384.678     117.858
  O      143.642    -386.728     116.246
  H      143.984    -384.421     118.739
  H      148.943    -384.486     111.725
  H      153.170    -382.332     114.840
  H      152.573    -385.698     117.288
  H      150.319    -385.914     116.300
  H      148.980    -383.350     113.968
  H      150.058    -385.823     113.042
  H      149.021    -387.047     114.877
  H      146.572    -385.279     114.369
  H      146.209    -387.238     115.852
  H      147.509    -386.700     116.913
  P      148.341    -388.874     113.153
  C      147.352    -390.126     115.242
  O      148.481    -389.569     114.594
  O      149.834    -388.424     112.806
  O      147.679    -389.713     112.105
  H      150.169    -387.729     113.386
  H      147.699    -390.825     115.994
  H      146.712    -390.650     114.528
  H      146.782    -389.324     115.723
  H      144.963    -386.784     120.661
  H      144.019    -385.449     120.045
  H      145.738    -385.518     119.740

 3  4  5  6  7  8  9  10  11  12  13  24  28  29  30  31  32 0
 6-311+G(2d,p)
 ****
 33  34 0
 6-311+G(2d,p)
 ****
 1  2  14  15  16  17  18  19  20  21  22  23  25  26  27 0
 3-21G
 ****
 35  36  37  38  39  40  41  42  43  44  45 0
 3-21G
 ****


