%nproc=1
%NoSave
%Mem=1900MB
#P OB98/GEN NMR

erre ene a

0 1
  C      -54.013    -208.083    -241.211
  O      -54.406    -206.994    -242.025
  H      -54.047    -207.771    -240.165
  H      -52.992    -208.386    -241.459
  H      -54.696    -208.927    -241.352
  P      -54.460    -207.266    -243.605
  C      -56.373    -209.015    -243.898
  O      -55.984    -207.649    -243.933
  C      -57.829    -209.138    -243.430
  O      -57.887    -208.836    -242.004
  C      -58.786    -208.162    -244.135
  O      -60.091    -208.769    -244.196
  C      -58.822    -207.002    -243.155
  O      -59.925    -206.165    -243.418
  C      -58.850    -207.773    -241.841
  N      -57.092    -207.844    -237.053
  C      -57.239    -208.821    -237.975
  N      -57.707    -208.721    -239.237
  C      -58.019    -207.443    -239.522
  C      -57.927    -206.343    -238.686
  C      -57.446    -206.580    -237.390
  N      -57.316    -205.594    -236.437
  N      -58.369    -205.202    -239.336
  C      -58.712    -205.607    -240.540
  N      -58.517    -206.953    -240.698
  O      -53.678    -208.654    -243.765
  O      -53.882    -206.194    -244.464
  H      -59.909    -205.844    -244.343
  H      -52.734    -208.483    -243.950
  H      -56.942    -209.818    -237.660
  H      -59.114    -204.984    -241.328
  H      -59.828    -208.231    -241.646
  H      -57.920    -206.390    -243.237
  H      -58.463    -207.887    -245.141
  H      -58.159    -210.177    -243.548
  H      -55.713    -209.548    -243.209
  H      -56.277    -209.445    -244.898
  H      -56.988    -205.856    -235.522
  H      -57.605    -204.653    -236.660
  P      -60.672    -209.231    -245.621
  C      -59.737    -211.592    -246.222
  O      -60.806    -210.829    -245.684
  O      -59.423    -208.957    -246.594
  O      -61.870    -208.477    -246.101
  H      -59.731    -208.502    -247.401
  H      -59.989    -212.631    -246.189
  H      -58.852    -211.421    -245.646
  H      -59.565    -211.299    -247.236

 6  7  8  9  10  11  12  13  14  15  25  28  32  33  34  35 0
 6-311+G(2d,p)
 ****
 36  37  40 0
 6-311+G(2d,p)
 ****
 1  2  3  4  5  16  17  18  19  20  21  22  23  24 0
 3-21G
 ****
 26  27  29  30  31  38  39 41  42  43  44  45  46  47  48 0
 3-21G
 ****


