%nproc=1
%NoSave
%Mem=1900MB
#P OB98/GEN NMR

erre ene a

0 1
  C       -6.762     175.636     129.943
  O       -6.636     176.979     129.529
  H       -6.479     175.567     130.995
  H       -6.091     175.002     129.355
  H       -7.790     175.283     129.834
  P       -7.289     177.423     128.137
  C       -9.626     176.646     127.365
  O       -8.881     177.379     128.326
  C      -11.122     176.667     127.705
  O      -11.325     175.994     128.973
  C      -11.639     178.100     127.873
  O      -13.025     178.211     127.559
  C      -11.447     178.354     129.359
  O      -12.295     179.383     129.866
  C      -11.738     176.972     129.943
  N      -11.545     177.999     134.932
  C      -12.277     178.621     133.941
  N      -13.065     179.652     134.332
  N      -12.227     178.281     132.680
  C      -11.344     177.285     132.423
  C      -10.546     176.607     133.316
  C      -10.638     176.969     134.715
  O       -9.994     176.467     135.630
  N       -9.773     175.666     132.683
  C      -10.100     175.776     131.411
  N      -11.068     176.729     131.205
  O       -7.021     176.168     127.177
  O       -6.751     178.690     127.545
  H      -12.038     179.545     130.792
  H       -7.053     176.441     126.244
  H      -11.643     178.280     135.891
  H       -9.680     175.184     130.606
  H      -12.815     176.843     130.112
  H      -10.416     178.677     129.521
  H      -12.981     180.064     135.249
  H      -11.083     178.820     127.278
  H      -13.354     180.303     133.599
  H      -11.686     176.105     126.953
  H       -9.243     175.624     127.377
  H       -9.452     177.046     126.364
  P      -13.452     179.040     126.257
  C      -12.159     178.434     124.029
  O      -13.195     178.164     124.948
  O      -12.352     180.195     126.166
  O      -14.843     179.592     126.306
  H      -12.767     181.070     126.292
  H      -12.188     177.714     123.238
  H      -11.215     178.377     124.529
  H      -12.289     179.415     123.623

 6  7  8  9  10  11  12  13  14  15  26  29  33  34 0
 6-311+G(2d,p)
 ****
 36  38  39  40  41 0
 6-311+G(2d,p)
 ****
 1  2  3  4  5  16  17  18  19  20  21  22  23  24  25 0
 3-21G
 ****
 27  28  30  31  32  35  37  42  43  44  45  46  47 0
 3-21G
 ****
 48  49 0
 3-21G
 ****


