%nproc=1
%NoSave
%Mem=1900MB
#P OB98/GEN NMR

erre ene a

0 1
  C      634.236     -19.994      59.205
  O      634.215     -18.951      58.258
  H      633.300     -20.558      59.129
  H      634.319     -19.588      60.218
  H      635.070     -20.671      59.004
  P      635.453     -17.934      58.271
  C      636.473     -16.412      60.117
  O      635.310     -17.041      59.595
  C      636.325     -16.228      61.624
  O      635.753     -17.424      62.211
  C      637.639     -16.002      62.356
  O      638.110     -14.674      62.244
  C      637.234     -16.356      63.781
  O      636.635     -15.244      64.454
  C      636.218     -17.497      63.570
  N      636.797     -18.798      63.887
  C      636.683     -19.200      65.219
  O      636.137     -18.522      66.084
  N      637.259     -20.404      65.529
  C      637.964     -21.199      64.676
  O      638.506     -22.242      65.031
  C      638.065     -20.718      63.282
  C      637.489     -19.552      62.960
  O      635.104     -16.915      57.085
  O      636.793     -18.569      58.086
  H      635.681     -17.092      56.319
  H      636.533     -15.515      65.387
  H      637.189     -20.715      66.486
  H      638.623     -21.325      62.579
  H      637.562     -19.171      61.948
  H      635.342     -17.348      64.215
  H      638.102     -16.658      64.365
  H      638.391     -16.726      62.010
  H      635.632     -15.391      61.809
  H      636.602     -15.430      59.648
  H      637.348     -17.029      59.880
  P      639.637     -14.388      62.640
  C      641.055     -15.410      64.603
  O      639.804     -14.934      64.140
  O      639.608     -12.791      62.791
  O      640.616     -14.913      61.646
  H      638.720     -12.467      63.035
  H      640.961     -15.727      65.621
  H      641.781     -14.626      64.539
  H      641.368     -16.236      63.999

 6  7  8  9  10  11  12  13  14  15  16  27  31  32  33  34  35 0
 6-311+G(2d,p)
 ****
 36  37 0
 6-311+G(2d,p)
 ****
 1  2  3  4  5  17  18  19  20  21  22  23  24  25 0
 3-21G
 ****
 26  28  29  30  38  39  40  41  42  43  44  45 0
 3-21G
 ****


