%nproc=1
%NoSave
%Mem=1900MB
#P OB98/GEN NMR

erre ene a

0 1
  C     -348.835     136.275      54.785
  O     -349.327     135.367      53.823
  H     -347.765     136.100      54.916
  H     -349.340     136.106      55.742
  H     -348.986     137.309      54.469
  P     -350.769     135.632      53.180
  C     -351.756     134.504      55.282
  O     -351.835     135.595      54.378
  C     -352.826     134.612      56.375
  O     -352.514     135.724      57.251
  C     -354.196     134.906      55.757
  O     -355.264     134.393      56.550
  C     -354.252     136.426      55.765
  O     -355.579     136.935      55.704
  C     -353.522     136.736      57.073
  N     -354.214     141.783      56.871
  C     -355.129     140.767      56.682
  N     -356.389     141.145      56.376
  N     -354.830     139.496      56.764
  C     -353.516     139.267      57.003
  C     -352.509     140.187      57.184
  C     -352.861     141.592      57.126
  O     -352.086     142.534      57.267
  N     -351.297     139.574      57.384
  C     -351.567     138.285      57.317
  N     -352.904     138.045      57.102
  O     -351.088     134.273      52.390
  O     -350.869     136.825      52.279
  H     -355.529     137.903      55.826
  H     -351.719     134.440      51.667
  H     -354.498     142.745      56.808
  H     -350.841     137.489      57.423
  H     -354.211     136.680      57.923
  H     -353.720     136.794      54.883
  H     -356.624     142.094      56.127
  H     -354.282     134.506      54.742
  H     -356.992     140.433      55.949
  H     -352.825     133.708      56.994
  H     -350.756     134.530      55.732
  H     -351.848     133.559      54.742
  P     -355.695     132.868      56.315
  C     -357.328     133.578      54.387
  O     -356.271     132.743      54.821
  O     -356.982     132.692      57.249
  O     -354.622     131.880      56.643
  H     -356.752     132.175      58.044
  H     -357.571     133.347      53.371
  H     -357.026     134.602      54.458
  H     -358.187     133.416      55.004

 6  7  8  9  10  11  12  13  14  15  26  29  33  34 0
 6-311+G(2d,p)
 ****
 36  38  39  40  41 0
 6-311+G(2d,p)
 ****
 1  2  3  4  5  16  17  18  19  20  21  22  23  24  25 0
 3-21G
 ****
 27  28  30  31  32  35  37  42  43  44  45  46  47 0
 3-21G
 ****
 48  49 0
 3-21G
 ****


