%nproc=1
%NoSave
%Mem=1900MB
#P OB98/GEN NMR

erre ene a

0 1
  C     -159.301      22.699       8.858
  O     -158.841      22.057      10.033
  P     -159.763      21.001      10.801
  C     -161.942      21.030      12.146
  O     -160.931      21.822      11.537
  C     -163.316      21.688      12.018
  O     -163.702      21.709      10.617
  C     -164.439      20.982      12.791
  O     -165.337      22.003      13.236
  C     -165.111      20.146      11.715
  O     -166.440      19.770      12.056
  C     -165.005      21.095      10.526
  N     -168.288      18.935       7.260
  C     -168.465      19.482       8.480
  N     -167.535      20.014       9.300
  C     -166.316      19.946       8.742
  C     -165.977      19.388       7.521
  C     -167.036      18.875       6.749
  N     -166.878      18.345       5.488
  N     -164.610      19.455       7.324
  C     -164.139      20.041       8.405
  N     -165.140      20.413       9.259
  O     -159.034      20.037      11.677
  O     -160.540      20.240       9.628
  H     -166.427      19.355      12.939
  H     -160.172      19.341       9.515
  H     -169.488      19.502       8.846
  H     -163.095      20.220       8.619
  H     -165.757      21.891      10.565
  H     -164.533      19.230      11.546
  H     -164.089      20.380      13.634
  H     -163.226      22.732      12.342
  H     -161.693      20.920      13.206
  H     -167.718      18.131       4.973
  H     -166.014      18.530       4.982
  H     -161.958      20.033      11.690
  P     -166.248      21.756      14.532
  C     -168.032      20.062      15.232
  O     -167.036      20.386      14.281
  O     -167.093      22.914      14.948
  O     -165.185      21.362      15.665
  H     -165.595      21.463      16.545
  H     -167.562      19.621      16.116
  H     -168.718      19.332      14.795
  H     -168.598      20.949      15.529
  H     -158.545      23.364       8.496
  H     -160.189      23.254       9.079
  H     -159.517      21.964       8.111

 3  4  5  6  7  8  9  10  11  12  22  25  29  30  31  32 0
 6-311+G(2d,p)
 ****
 33  36  37 0
 6-311+G(2d,p)
 ****
 1  2  13  14  15  16  17  18  19  20  21  23  24  26 0
 3-21G
 ****
 27  28  34  35  38  39  40  41  42  43  44  45  46  47  48 0
 3-21G
 ****


