%nproc=1
%NoSave
%Mem=1900MB
#P OB98/GEN NMR

erre ene a

0 1
  C     -352.258    -232.592     234.356
  O     -352.485    -231.286     233.876
  H     -352.127    -232.546     235.440
  H     -351.344    -232.993     233.909
  H     -353.098    -233.255     234.131
  P     -353.153    -231.104     232.432
  C     -351.341    -229.480     231.565
  O     -351.989    -230.734     231.386
  C     -350.189    -229.293     230.577
  O     -349.219    -230.350     230.755
  C     -350.649    -229.356     229.117
  O     -351.094    -228.121     228.586
  C     -349.384    -229.835     228.410
  O     -348.548    -228.729     228.030
  C     -348.690    -230.697     229.469
  N     -346.508    -235.107     228.076
  C     -345.992    -233.827     228.007
  N     -344.760    -233.711     227.470
  N     -346.642    -232.768     228.418
  C     -347.899    -233.030     228.839
  C     -348.527    -234.254     228.932
  C     -347.776    -235.428     228.546
  O     -348.182    -236.584     228.602
  N     -349.825    -234.124     229.368
  C     -350.003    -232.823     229.451
  N     -348.845    -232.122     229.220
  O     -353.949    -229.717     232.562
  O     -354.075    -232.204     232.002
  H     -348.565    -228.076     228.755
  H     -354.741    -229.742     231.994
  H     -345.953    -235.885     227.770
  H     -350.935    -232.338     229.722
  H     -347.611    -230.494     229.502
  H     -349.635    -230.371     227.489
  H     -344.254    -234.481     227.060
  H     -351.423    -230.119     228.988
  H     -344.424    -232.777     227.228
  H     -349.676    -228.347     230.796
  H     -350.961    -229.471     232.589
  H     -352.059    -228.662     231.475
  P     -351.964    -228.066     227.249
  C     -349.985    -226.758     226.120
  O     -350.990    -227.743     226.026
  O     -352.805    -226.714     227.419
  O     -352.846    -229.247     227.007
  H     -353.705    -226.908     227.738
  H     -349.451    -226.704     225.194
  H     -349.308    -227.014     226.908
  H     -350.434    -225.809     226.329

 6  7  8  9  10  11  12  13  14  15  26  29  33  34 0
 6-311+G(2d,p)
 ****
 36  38  39  40  41 0
 6-311+G(2d,p)
 ****
 1  2  3  4  5  16  17  18  19  20  21  22  23  24  25 0
 3-21G
 ****
 27  28  30  31  32  35  37  42  43  44  45  46  47 0
 3-21G
 ****
 48  49 0
 3-21G
 ****


