%nproc=1
%NoSave
%Mem=1900MB
#P OB98/GEN NMR

erre ene a

0 1
  C     -277.549      57.568     -35.291
  O     -278.467      56.952     -36.176
  H     -276.585      57.657     -35.798
  H     -277.418      56.971     -34.387
  H     -277.900      58.569     -35.030
  P     -279.873      56.455     -35.580
  C     -278.853      54.103     -35.291
  O     -279.519      55.188     -34.654
  C     -279.222      52.769     -34.649
  O     -278.499      52.577     -33.414
  C     -280.689      52.648     -34.264
  O     -281.587      52.618     -35.350
  C     -280.664      51.482     -33.289
  O     -280.674      50.218     -33.948
  C     -279.300      51.701     -32.586
  N     -279.452      52.227     -31.232
  C     -278.474      51.853     -30.322
  O     -277.536      51.104     -30.596
  N     -278.628      52.345     -29.050
  C     -279.663      53.118     -28.607
  O     -279.750      53.507     -27.451
  C     -280.688      53.448     -29.614
  C     -280.539      52.999     -30.860
  O     -280.948      56.187     -36.592
  O     -280.260      57.586     -34.517
  H     -280.540      49.539     -33.260
  H     -281.215      57.524     -34.261
  H     -277.916      52.098     -28.377
  H     -281.528      54.048     -29.292
  H     -281.282      53.233     -31.621
  H     -278.749      50.753     -32.517
  H     -281.516      51.496     -32.602
  H     -280.964      53.536     -33.675
  H     -278.926      51.963     -35.334
  H     -277.772      54.266     -35.185
  H     -279.107      54.094     -36.357
  P     -283.074      53.186     -35.293
  C     -284.100      50.778     -35.233
  O     -284.021      52.069     -34.634
  O     -283.572      53.899     -36.505
  O     -282.965      54.273     -34.098
  H     -283.573      55.004     -34.320
  H     -284.771      50.164     -34.669
  H     -283.129      50.329     -35.243
  H     -284.460      50.872     -36.236

 6  7  8  9  10  11  12  13  14  15  16  26  31  32  33  34  35 0
 6-311+G(2d,p)
 ****
 36  37 0
 6-311+G(2d,p)
 ****
 1  2  3  4  5  17  18  19  20  21  22  23  24  25 0
 3-21G
 ****
 27  28  29  30  38  39  40  41  42  43  44  45 0
 3-21G
 ****


