%nproc=1
%NoSave
%Mem=1900MB
#P OB98/GEN NMR

erre ene a

0 1
  C        2.392     188.208     -26.211
  O        2.277     187.671     -24.910
  P        2.598     186.130     -24.619
  C        0.283     185.367     -23.831
  O        1.624     185.632     -23.447
  C       -0.416     184.452     -22.824
  O        0.209     183.144     -22.849
  C       -0.373     184.964     -21.378
  O       -1.633     184.643     -20.775
  C        0.739     184.144     -20.754
  O        0.636     184.076     -19.341
  C        0.555     182.811     -21.489
  N        1.745     181.976     -21.433
  C        1.749     180.946     -20.489
  O        0.838     180.856     -19.666
  N        2.797     180.058     -20.497
  C        3.831     180.291     -21.246
  N        4.812     179.350     -21.273
  C        3.963     181.510     -22.071
  C        2.880     182.277     -22.153
  O        4.041     185.814     -24.401
  O        2.034     185.360     -25.908
  H        2.743     184.799     -26.278
  H        1.432     183.624     -18.987
  H        4.892     181.723     -22.579
  H        2.866     183.179     -22.754
  H       -0.290     182.253     -21.068
  H        1.710     184.588     -21.005
  H       -0.208     186.046     -21.315
  H       -1.454     184.323     -23.147
  H        4.668     178.510     -20.725
  H        0.297     184.875     -24.807
  H        5.479     179.289     -22.041
  H       -0.267     186.310     -23.941
  P       -2.445     185.814     -20.034
  C       -1.776     185.288     -17.582
  O       -2.797     185.307     -18.555
  O       -3.873     185.732     -20.766
  O       -1.890     187.197     -20.164
  H       -4.311     186.601     -20.707
  H       -2.176     184.855     -16.664
  H       -1.432     186.306     -17.369
  H       -0.932     184.677     -17.919
  H        2.135     189.247     -26.192
  H        1.729     187.688     -26.871
  H        3.399     188.096     -26.555

 3  4  5  6  7  8  9  10  11  12  13  24  27  28  29  30  32 0
 6-311+G(2d,p)
 ****
 34  35 0
 6-311+G(2d,p)
 ****
 1  2  14  15  16  17  18  19  20  21  22  23  25  26 0
 3-21G
 ****
 31  33  36  37  38  39  40  41  42  43  44  45  46 0
 3-21G
 ****


