%nproc=1
%NoSave
%Mem=1900MB
#P OB98/GEN NMR

erre ene a

0 1
  C      219.258       7.424     225.657
  O      218.264       6.864     224.799
  P      218.428       5.339     224.336
  C      217.265       3.915     226.147
  O      217.157       4.507     224.855
  C      216.773       2.458     226.115
  O      217.267       1.772     227.299
  C      215.250       2.289     226.144
  O      214.549       2.271     224.904
  C      215.116       0.889     226.741
  O      215.275      -0.098     225.705
  C      216.286       0.800     227.717
  N      213.765      -1.085     231.750
  C      213.984      -1.578     230.511
  N      214.664      -1.010     229.496
  C      215.162       0.182     229.859
  C      215.022       0.810     231.086
  C      214.282       0.128     232.065
  N      214.049       0.632     233.322
  N      215.663       2.031     231.084
  C      216.163       2.145     229.870
  N      215.900       1.049     229.097
  O      219.756       4.714     224.599
  O      218.148       5.427     222.758
  H      214.545       0.042     225.074
  H      218.742       4.804     222.295
  H      213.552      -2.554     230.310
  H      216.720       2.999     229.510
  H      216.771      -0.182     227.696
  H      214.132       0.719     227.188
  H      214.788       3.023     226.815
  H      217.189       1.957     225.233
  H      216.670       4.488     226.862
  H      213.470       0.098     233.949
  H      214.377       1.558     233.553
  H      218.305       3.999     226.461
  P      213.270       3.201     224.652
  C      214.464       5.209     223.475
  O      213.626       4.081     223.360
  O      212.819       3.988     225.832
  O      212.190       2.164     224.094
  H      212.394       1.805     223.214
  H      214.752       5.535     222.470
  H      215.366       4.968     224.041
  H      213.922       6.023     223.965
  H      219.009       8.442     225.875
  H      220.211       7.386     225.171
  H      219.299       6.864     226.568

 3  4  5  6  7  8  9  10  11  12  22  25  29  30  31  32 0
 6-311+G(2d,p)
 ****
 33  36  37 0
 6-311+G(2d,p)
 ****
 1  2  13  14  15  16  17  18  19  20  21  23  24  26 0
 3-21G
 ****
 27  28  34  35  38  39  40  41  42  43  44  45  46  47  48 0
 3-21G
 ****


