%nproc=1
%NoSave
%Mem=1900MB
#P OB98/GEN NMR

erre ene a

0 1
  C     -653.006    -938.784     192.349
  O     -653.233    -939.430     193.590
  H     -652.405    -937.887     192.518
  H     -653.957    -938.488     191.905
  H     -652.463    -939.452     191.665
  P     -653.921    -940.873     193.536
  C     -655.835    -940.366     195.220
  O     -655.476    -940.658     193.877
  C     -657.352    -940.421     195.389
  O     -657.957    -939.260     194.759
  C     -658.014    -941.640     194.759
  O     -657.934    -942.783     195.604
  C     -659.435    -941.146     194.613
  O     -660.102    -941.197     195.895
  C     -659.228    -939.684     194.176
  N     -661.758    -940.290     189.829
  C     -662.131    -940.617     191.123
  N     -663.323    -941.209     191.285
  N     -661.373    -940.402     192.173
  C     -660.188    -939.823     191.859
  C     -659.715    -939.441     190.618
  C     -660.556    -939.674     189.474
  O     -660.292    -939.382     188.314
  N     -658.470    -938.868     190.716
  C     -658.180    -938.924     192.006
  N     -659.183    -939.502     192.741
  O     -653.362    -941.598     194.855
  O     -653.632    -941.678     192.310
  H     -660.157    -942.130     196.139
  H     -653.226    -942.545     194.665
  H     -662.369    -940.489     189.053
  H     -657.268    -938.557     192.442
  H     -660.010    -939.017     194.569
  H     -660.036    -941.753     193.925
  H     -663.922    -941.451     190.509
  H     -657.594    -941.844     193.767
  H     -663.624    -941.444     192.209
  H     -657.579    -940.374     196.457
  H     -655.478    -939.369     195.489
  H     -655.347    -941.102     195.877
  P     -658.546    -944.161     195.054
  C     -660.125    -944.446     197.103
  O     -660.017    -944.266     195.687
  O     -657.715    -945.277     195.860
  O     -658.452    -944.352     193.571
  H     -657.717    -946.103     195.373
  H     -661.158    -944.498     197.378
  H     -659.664    -943.620     197.604
  H     -659.634    -945.354     197.386

 6  7  8  9  10  11  12  13  14  15  26  29  33  34 0
 6-311+G(2d,p)
 ****
 36  38  39  40  41 0
 6-311+G(2d,p)
 ****
 1  2  3  4  5  16  17  18  19  20  21  22  23  24  25 0
 3-21G
 ****
 27  28  30  31  32  35  37  42  43  44  45  46  47 0
 3-21G
 ****
 48  49 0
 3-21G
 ****


