%nproc=1
%NoSave
%Mem=1900MB
#P OB98/GEN NMR

erre ene a

0 1
  C      234.260      24.133     197.625
  O      234.447      24.734     198.891
  H      233.187      24.087     197.415
  H      234.663      23.117     197.609
  H      234.742      24.737     196.849
  P      235.914      24.682     199.540
  C      235.049      23.205     201.475
  O      235.963      23.316     200.386
  C      234.543      21.766     201.624
  O      234.136      21.252     200.341
  C      235.599      20.797     202.131
  O      235.967      20.998     203.478
  C      235.034      19.449     201.697
  O      234.114      18.893     202.630
  C      234.296      19.816     200.388
  N      234.986      19.308     199.209
  C      234.882      17.936     198.993
  O      234.270      17.173     199.743
  N      235.541      17.450     197.898
  C      236.320      18.180     197.049
  O      236.921      17.684     196.108
  C      236.414      19.623     197.341
  C      235.751      20.110     198.393
  O      236.325      25.896     200.322
  O      236.870      24.372     198.293
  H      233.709      18.112     202.206
  H      237.813      24.576     198.507
  H      235.469      16.461     197.720
  H      237.027      20.232     196.689
  H      235.811      21.171     198.631
  H      233.282      19.393     200.393
  H      235.831      18.711     201.555
  H      236.508      20.948     201.542
  H      233.664      21.777     202.278
  H      234.200      23.868     201.263
  H      235.533      23.536     202.400
  P      237.469      21.280     203.939
  C      237.600      18.760     204.575
  O      238.256      19.879     203.978
  O      237.658      22.239     205.075
  O      238.086      21.975     202.619
  H      238.733      22.642     202.911
  H      238.241      17.904     204.528
  H      236.692      18.555     204.047
  H      237.375      18.982     205.597

 6  7  8  9  10  11  12  13  14  15  16  26  31  32  33  34  35 0
 6-311+G(2d,p)
 ****
 36  37 0
 6-311+G(2d,p)
 ****
 1  2  3  4  5  17  18  19  20  21  22  23  24  25 0
 3-21G
 ****
 27  28  29  30  38  39  40  41  42  43  44  45 0
 3-21G
 ****


