%nproc=1
%NoSave
%Mem=1900MB
#P OB98/GEN NMR

erre ene a

0 1
  C      -14.689      87.406      30.760
  O      -15.309      87.070      32.002
  P      -15.859      88.299      32.874
  C      -14.139      88.185      34.811
  O      -15.490      88.023      34.410
  C      -14.059      88.720      36.243
  O      -14.654      90.025      36.377
  C      -14.768      87.834      37.258
  O      -13.950      86.726      37.594
  C      -14.978      88.797      38.420
  O      -13.804      88.877      39.252
  C      -15.223      90.137      37.705
  N      -19.368      91.461      40.301
  C      -18.156      90.978      40.755
  N      -18.023      90.851      42.093
  N      -17.168      90.647      39.968
  C      -17.442      90.827      38.655
  C      -18.592      91.325      38.087
  C      -19.682      91.682      38.967
  O      -20.765      92.136      38.616
  N      -18.477      91.419      36.722
  C      -17.309      90.860      36.463
  N      -16.613      90.543      37.603
  O      -17.447      88.111      32.813
  O      -15.448      89.634      32.347
  H      -13.577      87.981      39.566
  H      -17.846      88.814      32.270
  H      -20.101      91.691      40.952
  H      -16.911      90.688      35.472
  H      -14.700      90.960      38.210
  H      -15.795      88.476      39.070
  H      -18.744      91.088      42.756
  H      -15.738      87.506      36.861
  H      -17.140      90.505      42.447
  H      -12.996      88.803      36.505
  H      -13.627      88.870      34.134
  H      -13.629      87.220      34.727
  P      -13.904      85.491      36.575
  C      -15.161      83.857      38.149
  O      -13.973      84.148      37.443
  O      -12.399      85.524      36.031
  O      -14.885      85.577      35.450
  H      -12.398      85.388      35.064
  H      -15.267      82.772      38.231
  H      -16.044      84.261      37.645
  H      -15.097      84.283      39.156
  H      -14.364      86.512      30.270
  H      -13.846      88.039      30.942
  H      -15.392      87.918      30.137

 3  4  5  6  7  8  9  10  11  12  23  26  30  31 0
 6-311+G(2d,p)
 ****
 33  35  36  37  38 0
 6-311+G(2d,p)
 ****
 1  2  13  14  15  16  17  18  19  20  21  22  24  25 0
 3-21G
 ****
 27  28  29  32  34  39  40  41  42  43  44  45  46  47  48  49 0
 3-21G
 ****


