%nproc=1
%NoSave
%Mem=1900MB
#P OB98/GEN NMR

erre ene a

0 1
  C     -317.130    -174.355     200.034
  O     -316.200    -174.934     200.922
  H     -316.729    -173.401     199.683
  H     -318.071    -174.169     200.558
  H     -317.313    -174.998     199.168
  P     -316.301    -176.503     201.226
  C     -316.709    -176.098     203.744
  O     -317.193    -176.700     202.549
  C     -317.553    -176.490     204.957
  O     -318.817    -175.791     204.916
  C     -317.876    -177.987     204.990
  O     -316.891    -178.789     205.616
  C     -319.184    -178.009     205.776
  O     -318.941    -178.097     207.191
  C     -319.833    -176.667     205.423
  N     -324.814    -177.481     204.604
  C     -324.098    -177.614     205.778
  N     -324.790    -178.050     206.851
  N     -322.818    -177.354     205.871
  C     -322.242    -177.023     204.694
  C     -322.847    -176.880     203.462
  C     -324.275    -177.097     203.383
  O     -324.957    -176.977     202.371
  N     -321.930    -176.572     202.484
  C     -320.773    -176.616     203.107
  N     -320.916    -176.805     204.460
  O     -314.830    -176.877     201.745
  O     -316.685    -177.365     200.060
  H     -318.786    -179.034     207.410
  H     -314.622    -177.796     201.495
  H     -325.801    -177.668     204.598
  H     -319.806    -176.470     202.638
  H     -320.257    -176.184     206.312
  H     -319.784    -178.883     205.505
  H     -325.753    -178.346     206.812
  H     -318.077    -178.362     203.981
  H     -324.266    -178.341     207.679
  H     -317.040    -176.169     205.873
  H     -316.757    -175.017     203.587
  H     -315.661    -176.358     203.906
  P     -316.975    -180.381     205.571
  C     -317.037    -180.408     208.198
  O     -317.539    -180.897     206.974
  O     -315.438    -180.828     205.603
  O     -317.699    -180.954     204.396
  H     -315.122    -181.036     204.706
  H     -317.549    -180.882     209.009
  H     -317.190    -179.350     208.249
  H     -315.990    -180.620     208.265

 6  7  8  9  10  11  12  13  14  15  26  29  33  34 0
 6-311+G(2d,p)
 ****
 36  38  39  40  41 0
 6-311+G(2d,p)
 ****
 1  2  3  4  5  16  17  18  19  20  21  22  23  24  25 0
 3-21G
 ****
 27  28  30  31  32  35  37  42  43  44  45  46  47 0
 3-21G
 ****
 48  49 0
 3-21G
 ****


