%nproc=1
%NoSave
%Mem=1900MB
#P OB98/GEN NMR

erre ene a

0 1
  C     -203.515     607.860     345.078
  O     -202.706     607.783     343.921
  H     -204.275     608.632     344.923
  H     -202.903     608.143     345.937
  H     -204.011     606.908     345.267
  P     -201.655     606.573     343.857
  C     -202.022     606.428     341.293
  O     -201.089     606.539     342.355
  C     -201.421     606.974     340.002
  O     -201.460     608.420     340.004
  C     -199.961     606.589     339.777
  O     -199.841     605.289     339.214
  C     -199.541     607.661     338.786
  O     -200.043     607.332     337.473
  C     -200.259     608.898     339.332
  N     -197.365     613.021     339.930
  C     -197.999     612.536     338.798
  N     -197.832     613.247     337.667
  N     -198.729     611.450     338.782
  C     -198.801     610.837     339.989
  C     -198.220     611.218     341.182
  C     -197.422     612.423     341.185
  O     -196.858     612.908     342.164
  N     -198.528     610.348     342.188
  C     -199.279     609.427     341.613
  N     -199.467     609.676     340.274
  O     -202.584     605.271     343.930
  O     -200.623     606.565     344.937
  H     -199.793     606.408     337.299
  H     -202.121     604.579     344.442
  H     -196.805     613.853     339.887
  H     -199.707     608.572     342.113
  H     -200.574     609.589     338.540
  H     -198.456     607.752     338.697
  H     -197.241     614.062     337.601
  H     -199.376     606.690     340.696
  H     -198.314     612.928     336.835
  H     -202.045     606.630     339.169
  H     -202.922     606.998     341.543
  H     -202.294     605.375     341.165
  P     -198.359     604.750     338.908
  C     -198.938     602.239     338.596
  O     -198.552     603.461     337.971
  O     -197.904     604.130     340.311
  O     -197.401     605.782     338.415
  H     -196.929     604.097     340.364
  H     -199.028     601.472     337.855
  H     -199.879     602.372     339.088
  H     -198.197     601.956     339.314

 6  7  8  9  10  11  12  13  14  15  26  29  33  34 0
 6-311+G(2d,p)
 ****
 36  38  39  40  41 0
 6-311+G(2d,p)
 ****
 1  2  3  4  5  16  17  18  19  20  21  22  23  24  25 0
 3-21G
 ****
 27  28  30  31  32  35  37  42  43  44  45  46  47 0
 3-21G
 ****
 48  49 0
 3-21G
 ****


