%nproc=1
%NoSave
%Mem=1900MB
#P OB98/GEN NMR

erre ene a

0 1
  C        9.756    -540.508      10.774
  O       10.921    -541.271      11.009
  H       10.033    -539.623      10.192
  H        9.320    -540.175      11.720
  H        9.024    -541.085      10.204
  P       10.788    -542.630      11.852
  C        9.185    -542.915      13.865
  O       10.223    -542.150      13.283
  C        8.791    -542.321      15.218
  O        8.490    -540.913      15.106
  C        7.538    -542.930      15.844
  O        7.733    -544.229      16.377
  C        7.263    -541.901      16.925
  O        8.184    -542.082      18.012
  C        7.541    -540.585      16.163
  N        6.329    -539.992      15.595
  C        5.944    -538.747      16.103
  O        6.605    -538.198      16.990
  N        4.797    -538.157      15.623
  C        4.089    -538.775      14.730
  N        2.955    -538.147      14.292
  C        4.441    -540.093      14.181
  C        5.565    -540.640      14.648
  O       12.005    -543.493      11.902
  O        9.507    -543.365      11.232
  H        9.016    -542.408      17.625
  H        9.387    -544.219      11.715
  H        3.801    -540.574      13.458
  H        5.890    -541.610      14.299
  H        8.024    -539.851      16.816
  H        6.253    -541.971      17.343
  H        6.700    -542.923      15.133
  H        9.661    -542.416      15.883
  H        2.740    -537.242      14.689
  H        9.540    -543.945      13.977
  H        2.304    -538.579      13.657
  H        8.306    -542.907      13.217
  P        6.424    -545.131      16.594
  C        4.334    -544.863      18.135
  O        5.699    -544.566      17.905
  O        7.026    -546.541      17.053
  O        5.531    -545.252      15.398
  H        7.065    -547.159      16.302
  H        4.019    -544.407      19.050
  H        4.206    -545.923      18.202
  H        3.745    -544.483      17.326

 6  7  8  9  10  11  12  13  14  15  16  26  30  31  32  33  35 0
 6-311+G(2d,p)
 ****
 37  38 0
 6-311+G(2d,p)
 ****
 1  2  3  4  5  17  18  19  20  21  22  23  24  25 0
 3-21G
 ****
 27  28  29  34  36  39  40  41  42  43  44  45  46 0
 3-21G
 ****


