%nproc=1
%NoSave
%Mem=1900MB
#P OB98/GEN NMR

erre ene a

0 1
  C        4.873    -133.706     676.081
  O        5.814    -134.275     676.973
  H        5.304    -132.802     675.646
  H        3.959    -133.435     676.620
  H        4.641    -134.411     675.281
  P        5.354    -135.599     677.756
  C        3.584    -136.070     679.587
  O        4.206    -135.095     678.758
  C        3.025    -135.414     680.845
  O        2.045    -134.422     680.501
  C        2.322    -136.383     681.794
  O        3.271    -137.036     682.625
  C        1.452    -135.428     682.596
  O        2.240    -134.802     683.624
  C        1.037    -134.388     681.541
  N       -3.840    -132.794     681.338
  C       -2.830    -132.484     682.182
  N       -1.574    -132.985     682.209
  C       -1.402    -133.890     681.236
  C       -2.344    -134.311     680.302
  C       -3.616    -133.713     680.376
  N       -4.648    -134.033     679.516
  N       -1.812    -135.264     679.462
  C       -0.553    -135.372     679.839
  N       -0.267    -134.589     680.931
  O        6.453    -136.409     678.358
  O        4.508    -136.346     676.615
  H        2.608    -135.520     684.171
  H        3.972    -135.706     676.115
  H       -3.056    -131.731     682.930
  H        0.195    -135.985     679.340
  H        1.027    -133.370     681.954
  H        0.622    -135.935     683.093
  H        1.684    -137.092     681.256
  H        3.844    -134.902     681.358
  H        4.303    -136.847     679.859
  H       -5.564    -133.703     679.761
  H       -4.509    -134.811     678.886
  H        2.781    -136.534     679.003
  P        3.217    -138.626     682.855
  C        1.550    -140.236     683.960
  O        1.877    -138.876     683.695
  O        4.462    -139.206     683.432
  O        2.861    -139.223     681.415
  H        3.064    -140.175     681.387
  H        0.642    -140.281     684.524
  H        2.340    -140.690     684.520
  H        1.422    -140.759     683.035

 6  7  8  9  10  11  12  13  14  15  25  28  32  33  34  35 0
 6-311+G(2d,p)
 ****
 36  39  40 0
 6-311+G(2d,p)
 ****
 1  2  3  4  5  16  17  18  19  20  21  22  23  24 0
 3-21G
 ****
 26  27  29  30  31  37  38  41  42  43  44  45  46  47 0
 3-21G
 ****
 48 0
 3-21G
 ****


