%nproc=1
%NoSave
%Mem=1900MB
#P OB98/GEN NMR

erre ene a

0 1
  C     -486.174     241.708      62.129
  O     -485.925     241.644      63.523
  P     -484.414     241.450      64.020
  C     -484.997     239.216      65.223
  O     -484.454     240.521      65.332
  C     -485.379     238.680      66.607
  O     -484.192     238.631      67.453
  C     -486.428     239.530      67.340
  O     -487.242     238.645      68.120
  C     -485.574     240.380      68.261
  O     -486.299     240.936      69.344
  C     -484.504     239.355      68.660
  N     -483.315     239.971      69.246
  C     -483.424     240.481      70.535
  O     -484.460     240.445      71.202
  N     -482.310     241.105      71.025
  C     -481.157     241.344      70.341
  O     -480.234     242.012      70.801
  C     -481.092     240.784      68.981
  C     -482.155     240.133      68.507
  O     -484.027     242.892      64.588
  O     -483.467     240.988      62.965
  H     -486.715     240.200      69.826
  H     -483.495     243.386      63.933
  H     -482.367     241.473      71.964
  H     -480.180     240.937      68.420
  H     -482.146     239.730      67.501
  H     -484.926     238.631      69.368
  H     -485.136     241.213      67.692
  H     -487.054     240.131      66.667
  H     -485.743     237.646      66.496
  H     -484.252     238.554      64.777
  H     -485.872     239.231      64.559
  P     -488.839     238.777      67.987
  C     -489.060     238.632      70.595
  O     -489.464     238.151      69.328
  O     -489.139     237.663      66.871
  O     -489.302     240.143      67.612
  H     -488.638     236.841      67.016
  H     -488.843     239.706      70.563
  H     -488.167     238.092      70.917
  H     -489.862     238.456      71.310
  H     -487.222     241.838      61.960
  H     -485.848     240.800      61.666
  H     -485.639     242.534      61.709

 3  4  5  6  7  8  9  10  11  12  13  23  28  29  30  31  32 0
 6-311+G(2d,p)
 ****
 33  34 0
 6-311+G(2d,p)
 ****
 1  2  14  15  16  17  18  19  20  21  22  24  25  26 0
 3-21G
 ****
 27  35  36  37  38  39  40  41  42  43  44  45 0
 3-21G
 ****


