%nproc=1
%NoSave
%Mem=1900MB
#P OB98/GEN NMR

erre ene a

0 1
  C     -187.436     323.592     261.666
  O     -187.888     323.817     260.324
  P     -186.761     324.274     259.267
  C     -187.250     326.837     259.242
  O     -186.340     325.792     259.609
  C     -186.593     328.214     259.320
  O     -185.476     328.279     258.404
  C     -187.527     329.386     258.973
  O     -187.208     330.503     259.824
  C     -187.097     329.758     257.559
  O     -187.448     331.104     257.232
  C     -185.602     329.480     257.649
  N     -184.715     331.673     253.162
  C     -185.297     332.200     254.308
  N     -185.712     333.483     254.238
  N     -185.444     331.523     255.421
  C     -184.950     330.260     255.354
  C     -184.355     329.632     254.284
  C     -184.238     330.373     253.045
  O     -183.784     329.944     251.980
  N     -183.989     328.334     254.607
  C     -184.372     328.191     255.851
  N     -184.960     329.322     256.349
  O     -187.576     324.397     257.895
  O     -185.623     323.315     259.145
  H     -187.362     331.197     256.268
  H     -187.166     323.829     257.212
  H     -184.642     332.228     252.333
  H     -184.269     327.292     256.438
  H     -185.084     330.279     258.191
  H     -187.597     329.093     256.846
  H     -185.570     334.077     253.438
  H     -188.593     329.160     259.040
  H     -186.089     333.904     255.083
  H     -186.186     328.341     260.336
  H     -188.125     326.807     259.910
  H     -187.606     326.641     258.224
  P     -188.409     331.077     260.730
  C     -188.367     333.305     259.375
  O     -189.117     332.199     259.835
  O     -187.642     331.917     261.861
  O     -189.290     330.023     261.305
  H     -188.177     331.945     262.670
  H     -187.289     333.154     259.545
  H     -188.678     334.196     259.923
  H     -188.544     333.443     258.318
  H     -188.263     323.295     262.276
  H     -187.012     324.494     262.055
  H     -186.696     322.819     261.668

 3  4  5  6  7  8  9  10  11  12  23  26  30  31  33  0
 6-311+G(2d,p)
 ****
 35  36  37  38 0
 6-311+G(2d,p)
 ****
 1  2  13  14  15  16  17  18  19  20  21  22  24  25  27  28  29 0
 3-21G
 ****
 32  34  39  40  41  42  43  44  45  46  47  48  49 0
 3-21G
 ****


