%nproc=1
%NoSave
%Mem=1900MB
#P OB98/GEN NMR

erre ene a

0 1
  C      105.585     354.171     -84.322
  O      106.698     355.049     -84.285
  P      106.621     356.304     -83.291
  C      106.791     357.848     -85.386
  O      106.142     357.566     -84.156
  C      106.216     359.127     -85.993
  O      104.791     359.000     -86.185
  C      106.399     360.357     -85.111
  O      107.717     360.875     -85.205
  C      105.337     361.297     -85.664
  O      105.819     361.992     -86.826
  C      104.210     360.312     -86.048
  N      103.109     360.320     -85.086
  C      102.234     361.400     -85.171
  O      102.376     362.311     -85.988
  N      101.212     361.415     -84.266
  C      101.014     360.508     -83.261
  O      100.109     360.608     -82.441
  C      101.989     359.404     -83.202
  C      102.979     359.367     -84.093
  O      108.154     356.629     -82.965
  O      105.827     356.065     -82.051
  H      105.076     362.540     -87.148
  H      108.239     356.935     -82.040
  H      100.552     362.172     -84.327
  H      101.861     358.669     -82.417
  H      103.715     358.573     -84.057
  H      103.805     360.570     -87.035
  H      105.038     362.058     -84.940
  H      106.150     360.112     -84.069
  H      106.680     359.288     -86.976
  H      106.644     357.014     -86.079
  H      107.865     357.960     -85.204
  P      108.120     362.032     -84.165
  C      108.284     363.744     -86.132
  O      107.711     363.398     -84.885
  O      109.717     361.967     -84.260
  O      107.565     361.806     -82.798
  H      110.024     361.717     -85.147
  H      108.447     362.862     -86.756
  H      109.234     364.252     -85.964
  H      107.604     364.423     -86.654
  H      105.774     353.385     -85.023
  H      104.712     354.714     -84.620
  H      105.429     353.752     -83.350

 3  4  5  6  7  8  9  10  11  12  13  23  28  29  30  31  32 0
 6-311+G(2d,p)
 ****
 33  34 0
 6-311+G(2d,p)
 ****
 1  2  14  15  16  17  18  19  20  21  22  24  25  26 0
 3-21G
 ****
 27  35  36  37  38  39  40  41  42  43  44  45 0
 3-21G
 ****


