%nproc=1
%NoSave
%Mem=1900MB
#P OB98/GEN NMR

erre ene a

0 1
  C      -41.105      21.631     102.487
  O      -42.446      21.972     102.850
  P      -42.855      22.151     104.392
  C      -42.583      19.675     104.996
  O      -42.141      21.003     105.266
  C      -42.372      18.713     106.176
  O      -41.020      18.192     106.188
  C      -42.631      19.323     107.561
  O      -43.157      18.262     108.367
  C      -41.232      19.705     108.009
  O      -41.145      19.899     109.419
  C      -40.414      18.532     107.452
  N      -38.998      18.859     107.306
  C      -38.078      17.851     107.608
  O      -38.471      16.760     108.038
  N      -36.736      18.114     107.469
  C      -36.344      19.314     107.155
  N      -35.002      19.519     107.058
  C      -37.278      20.432     106.910
  C      -38.579      20.133     106.993
  O      -44.329      22.287     104.637
  O      -42.088      23.489     104.839
  H      -40.287      20.336     109.617
  H      -42.605      23.937     105.537
  H      -36.905      21.420     106.676
  H      -39.338      20.887     106.824
  H      -40.500      17.652     108.108
  H      -40.928      20.643     107.528
  H      -43.316      20.177     107.539
  H      -43.039      17.855     106.019
  H      -34.395      18.730     107.260
  H      -42.033      19.296     104.124
  H      -34.587      20.435     106.934
  H      -43.645      19.702     104.723
  P      -44.618      18.332     109.014
  C      -43.603      19.192     111.208
  O      -44.556      19.428     110.182
  O      -45.187      17.013     109.431
  O      -45.537      19.037     107.899
  H      -46.473      18.861     108.097
  H      -43.504      20.095     111.815
  H      -42.625      18.942     110.775
  H      -43.942      18.369     111.840
  H      -41.031      21.558     101.422
  H      -40.844      20.692     102.928
  H      -40.437      22.389     102.839

 3  4  5  6  7  8  9  10  11  12  13  23  27  28  29  30  32 0
 6-311+G(2d,p)
 ****
 34  35 0
 6-311+G(2d,p)
 ****
 1  2  14  15  16  17  18  19  20  21  22  24  25  26 0
 3-21G
 ****
 31  33  36  37  38  39  40  41  42  43  44  45  46 0
 3-21G
 ****


