%nproc=1
%NoSave
%Mem=1900MB
#P OB98/GEN NMR

erre ene a

0 1
  C      169.818     617.772     400.683
  O      170.812     617.486     401.666
  P      171.536     616.059     401.639
  C      170.891     613.603     402.099
  O      170.573     614.975     402.327
  C      170.802     612.786     403.408
  O      171.788     613.284     404.368
  C      169.418     612.863     404.072
  O      168.884     611.586     404.396
  C      169.632     613.819     405.244
  O      168.681     613.628     406.279
  C      171.111     613.562     405.594
  N      171.687     614.717     406.305
  C      171.520     614.759     407.681
  O      170.856     613.933     408.300
  N      172.089     615.825     408.333
  C      172.741     616.864     407.741
  O      173.204     617.823     408.354
  C      172.844     616.812     406.267
  C      172.313     615.753     405.631
  O      172.961     616.036     402.124
  O      171.470     615.639     400.090
  H      168.644     612.672     406.499
  H      172.318     615.197     399.858
  H      171.980     615.842     409.338
  H      173.317     617.624     405.759
  H      172.358     615.682     404.549
  H      171.210     612.694     406.258
  H      169.529     614.840     404.875
  H      168.680     613.300     403.387
  H      171.061     611.749     403.169
  H      171.910     613.518     401.705
  H      170.241     613.188     401.316
  P      167.334     611.179     404.262
  C      165.451     610.586     405.947
  O      166.672     611.262     405.722
  O      167.051     609.926     403.507
  O      166.699     612.446     403.489
  H      166.054     612.124     402.842
  H      164.964     611.029     406.815
  H      165.661     609.521     406.141
  H      164.776     610.667     405.077
  H      169.435     618.759     400.839
  H      169.021     617.063     400.765
  H      170.253     617.708     399.707

 3  4  5  6  7  8  9  10  11  12  13  23  28  29  30  31  32 0
 6-311+G(2d,p)
 ****
 33  34 0
 6-311+G(2d,p)
 ****
 1  2  14  15  16  17  18  19  20  21  22  24  25  26  27 0
 3-21G
 ****
 35  36  37  38  39  40  41  42  43  44  45 0
 3-21G
 ****


