%nproc=1
%NoSave
%Mem=1900MB
#P OB98/GEN NMR

erre ene a

0 1
  C     -136.954      32.441     -98.323
  O     -137.853      31.821     -97.405
  P     -138.127      30.252     -97.320
  C     -139.799      28.573     -98.446
  O     -139.406      29.920     -98.223
  C     -141.122      28.451     -99.223
  O     -142.207      28.982     -98.419
  C     -141.074      29.292    -100.498
  O     -140.473      28.776    -101.671
  C     -142.505      29.773    -100.697
  O     -143.253      28.923    -101.567
  C     -143.088      29.735     -99.281
  N     -146.146      33.828     -99.067
  C     -146.263      32.693     -99.844
  N     -147.294      32.660    -100.713
  N     -145.429      31.689     -99.787
  C     -144.393      31.889     -98.940
  C     -144.160      32.978     -98.132
  C     -145.121      34.062     -98.160
  O     -145.072      35.084     -97.483
  N     -142.994      32.838     -97.423
  C     -142.511      31.679     -97.819
  N     -143.329      31.059     -98.737
  O     -138.096      29.665     -95.950
  O     -136.899      29.615     -98.151
  H     -142.816      28.927    -102.438
  H     -136.697      28.753     -97.733
  H     -146.830      34.562     -99.134
  H     -141.583      31.239     -97.472
  H     -144.053      29.212     -99.265
  H     -142.518      30.771    -101.152
  H     -147.897      33.447    -100.891
  H     -140.494      30.196    -100.264
  H     -147.258      31.935    -101.434
  H     -141.369      27.403     -99.406
  H     -139.888      28.103     -97.462
  H     -139.009      28.038     -98.975
  P     -139.327      29.482    -102.538
  C     -139.108      31.656    -103.878
  O     -139.997      30.684    -103.356
  O     -139.002      28.417    -103.688
  O     -138.092      29.842    -101.781
  H     -138.151      28.628    -104.115
  H     -139.675      32.556    -104.131
  H     -138.633      31.266    -104.784
  H     -138.338      31.914    -103.145
  H     -136.959      33.500     -98.168
  H     -137.263      32.226     -99.325
  H     -135.966      32.062     -98.165

 3  4  5  6  7  8  9  10  11  12  23  26  30  31 0
 6-311+G(2d,p)
 ****
 33  35  36  37  38 0
 6-311+G(2d,p)
 ****
 1  2  13  14  15  16  17  18  19  20  21  22  24  25 0
 3-21G
 ****
 27  28  29  32  34  39  40  41  42  43  44  45  46  47  48  49 0
 3-21G
 ****


