%nproc=1
%NoSave
%Mem=1900MB
#P OB98/GEN NMR

erre ene a

0 1
  C      -87.309      95.274      70.768
  O      -86.839      94.247      69.924
  H      -87.599      94.829      71.725
  H      -88.185      95.761      70.335
  H      -86.522      96.010      70.950
  P      -86.523      94.588      68.386
  C      -88.366      92.929      67.730
  O      -86.997      93.281      67.568
  C      -88.639      91.506      67.239
  O      -88.784      91.507      65.796
  C      -87.531      90.506      67.591
  O      -88.116      89.314      68.121
  C      -86.865      90.218      66.254
  O      -86.205      88.957      66.241
  C      -88.053      90.371      65.297
  N      -87.646      90.555      63.909
  C      -88.277      89.746      62.960
  O      -89.103      88.902      63.315
  N      -87.933      89.879      61.640
  C      -87.001      90.711      61.298
  N      -86.698      90.790      59.975
  C      -86.274      91.553      62.271
  C      -86.648      91.430      63.545
  O      -85.121      95.021      68.118
  O      -87.619      95.681      67.983
  H      -85.419      89.012      66.829
  H      -87.314      96.172      67.180
  H      -85.496      92.224      61.940
  H      -86.176      92.015      64.327
  H      -88.711      89.492      65.350
  H      -86.118      90.995      66.044
  H      -86.818      90.890      68.317
  H      -89.607      91.184      67.641
  H      -87.220      90.198      59.342
  H      -88.981      93.647      67.177
  H      -85.987      91.398      59.597
  H      -88.611      92.991      68.796
  P      -88.020      89.127      69.714
  C      -87.917      86.564      70.080
  O      -88.723      87.733      70.091
  O      -89.035      90.232      70.271
  O      -86.642      89.315      70.256
  H      -88.543      91.018      70.576
  H      -88.513      85.717      70.349
  H      -87.118      86.675      70.783
  H      -87.512      86.419      69.100

 6  7  8  9  10  11  12  13  14  15  16  26  30  31  32  33  35 0
 6-311+G(2d,p)
 ****
 37  38 0
 6-311+G(2d,p)
 ****
 1  2  3  4  5  17  18  19  20  21  22  23  24  25 0
 3-21G
 ****
 27  28  29  34  36  39  40  41  42  43  44  45  46 0
 3-21G
 ****


