%nproc=1
%NoSave
%Mem=1900MB
#P OB98/GEN NMR

erre ene a

0 1
  C     -958.409    -288.336    1898.971
  O     -958.333    -286.909    1898.867
  P     -959.576    -286.128    1898.238
  C     -960.143    -284.095    1899.775
  O     -960.404    -285.456    1899.426
  C     -959.542    -284.008    1901.180
  O     -958.303    -284.735    1901.272
  C     -959.232    -282.581    1901.619
  O     -960.384    -281.927    1902.133
  C     -958.234    -282.827    1902.733
  O     -958.945    -283.191    1903.943
  C     -957.433    -284.013    1902.202
  N     -952.690    -282.364    1902.896
  C     -953.678    -282.695    1903.816
  N     -953.334    -282.580    1905.112
  N     -954.869    -283.108    1903.480
  C     -955.054    -283.206    1902.158
  C     -954.178    -282.915    1901.145
  C     -952.861    -282.430    1901.512
  O     -951.965    -282.109    1900.735
  N     -954.747    -283.120    1899.922
  C     -955.952    -283.563    1900.192
  N     -956.203    -283.629    1901.524
  O     -960.532    -287.310    1897.760
  O     -959.204    -285.201    1897.110
  H     -959.538    -282.436    1904.156
  H     -961.064    -287.014    1896.980
  H     -951.797    -282.046    1903.199
  H     -956.686    -283.856    1899.432
  H     -957.155    -284.732    1902.978
  H     -957.647    -281.938    1902.981
  H     -952.413    -282.310    1905.440
  H     -958.766    -282.019    1900.794
  H     -954.018    -282.839    1905.808
  H     -960.252    -284.456    1901.892
  H     -961.087    -283.529    1899.719
  H     -959.487    -283.665    1899.015
  P     -961.561    -281.534    1901.096
  C     -963.764    -282.790    1901.710
  O     -962.519    -282.814    1901.003
  O     -960.804    -281.552    1899.685
  O     -962.210    -280.233    1901.379
  H     -961.194    -280.878    1899.084
  H     -964.344    -283.663    1901.430
  H     -964.324    -281.880    1901.445
  H     -963.585    -282.823    1902.808
  H     -957.507    -288.710    1899.409
  H     -958.534    -288.759    1897.996
  H     -959.242    -288.605    1899.586

 3  4  5  6  7  8  9  10  11  12  23  26  30  31 0
 6-311+G(2d,p)
 ****
 33  35  36  37  38 0
 6-311+G(2d,p)
 ****
 1  2  13  14  15  16  17  18  19  20  21  22  24  25 0
 3-21G
 ****
 27  28  29  32  34  39  40  41  42  43  44  45  46  47  48  49 0
 3-21G
 ****


