%nproc=1
%NoSave
%Mem=1900MB
#P OB98/GEN NMR

erre ene a

0 1
  C      212.596     -92.927      -0.864
  O      212.789     -92.372       0.422
  H      213.462     -93.547      -1.111
  H      212.505     -92.133      -1.612
  H      211.699     -93.552      -0.869
  P      211.650     -91.375       0.955
  C      212.958     -89.249       0.300
  O      211.813     -90.058       0.046
  C      212.550     -87.783       0.456
  O      213.745     -87.000       0.725
  C      211.886     -87.198      -0.795
  O      210.872     -86.271      -0.398
  C      213.021     -86.439      -1.467
  O      212.546     -85.411      -2.335
  C      213.800     -85.946      -0.250
  N      216.824     -82.405      -2.324
  C      215.526     -82.381      -1.950
  N      214.801     -83.367      -1.383
  C      215.574     -84.451      -1.149
  C      216.905     -84.625      -1.476
  C      217.543     -83.534      -2.101
  N      218.853     -83.560      -2.518
  N      217.331     -85.889      -1.119
  C      216.270     -86.468      -0.580
  N      215.177     -85.641      -0.598
  O      211.639     -91.135       2.427
  O      210.323     -92.042       0.358
  H      213.303     -85.066      -2.851
  H      210.436     -92.285      -0.582
  H      214.995     -81.450      -2.144
  H      216.239     -87.478      -0.187
  H      213.370     -85.035       0.192
  H      213.625     -87.130      -2.066
  H      211.457     -87.958      -1.451
  H      211.903     -87.686       1.335
  H      213.675     -89.347      -0.519
  H      219.228     -82.734      -2.959
  H      219.408     -84.389      -2.358
  H      213.428     -89.616       1.223
  P      209.386     -86.811      -0.120
  C      208.495     -86.824      -2.544
  O      208.883     -87.611      -1.423
  O      208.420     -85.810       0.417
  O      209.631     -87.997       0.932
  H      208.936     -87.961       1.621
  H      208.183     -87.467      -3.340
  H      209.325     -86.232      -2.868
  H      207.686     -86.182      -2.266

 6  7  8  9  10  11  12  13  14  15  25  28  32  33  34  35 0
 6-311+G(2d,p)
 ****
 36  39  40 0
 6-311+G(2d,p)
 ****
 1  2  3  4  5  16  17  18  19  20  21  22  23  24 0
 3-21G
 ****
 26  27  29  30  31  37  38  41  42  43  44  45  46  47 0
 3-21G
 ****
 48 0
 3-21G
 ****


