%nproc=1
%NoSave
%Mem=1900MB
#P OB98/GEN NMR

erre ene a

0 1
  C     -114.619     277.553    -534.211
  O     -113.227     277.809    -534.289
  P     -112.759     279.311    -534.583
  C     -112.914     279.857    -532.034
  O     -113.271     280.219    -533.360
  C     -111.617     280.564    -531.634
  O     -110.530     280.128    -532.488
  C     -111.682     282.077    -531.787
  O     -112.363     282.681    -530.703
  C     -110.198     282.445    -531.845
  O     -109.642     282.541    -530.523
  C     -109.604     281.232    -532.599
  N     -109.299     281.536    -533.995
  C     -107.962     281.414    -534.368
  O     -107.074     281.096    -533.571
  N     -107.672     281.711    -535.664
  C     -108.552     282.167    -536.606
  O     -108.226     282.475    -537.742
  C     -109.950     282.303    -536.150
  C     -110.250     281.994    -534.890
  O     -113.682     279.767    -535.806
  O     -111.307     279.466    -534.895
  H     -110.110     283.274    -530.077
  H     -113.179     280.359    -536.403
  H     -106.716     281.610    -535.962
  H     -110.680     282.661    -536.867
  H     -111.269     282.099    -534.529
  H     -108.683     280.899    -532.112
  H     -110.027     283.399    -532.336
  H     -112.151     282.340    -532.746
  H     -111.374     280.290    -530.600
  H     -112.780     278.773    -531.976
  H     -113.731     280.136    -531.352
  P     -113.011     284.128    -530.970
  C     -115.513     283.412    -530.686
  O     -114.478     283.825    -531.550
  O     -112.154     284.611    -532.224
  O     -112.941     285.032    -529.779
  H     -111.893     283.874    -532.795
  H     -115.431     283.894    -529.711
  H     -115.468     282.329    -530.562
  H     -116.476     283.678    -531.135
  H     -114.780     276.514    -534.011
  H     -115.082     277.813    -535.140
  H     -115.046     278.138    -533.423

 3  4  5  6  7  8  9  10  11  12  13  23  28  29  30  31  32 0
 6-311+G(2d,p)
 ****
 33  34 0
 6-311+G(2d,p)
 ****
 1  2  14  15  16  17  18  19  20  21  22  24  25  26 0
 3-21G
 ****
 27  35  36  37  38  39  40  41  42  43  44  45 0
 3-21G
 ****


