%nproc=1
%NoSave
%Mem=1900MB
#P OB98/GEN NMR

erre ene a

0 1
  C       59.398    -378.972     244.686
  O       59.575    -378.899     246.087
  H       58.751    -378.156     244.356
  H       60.373    -378.865     244.203
  H       58.965    -379.933     244.398
  P       58.333    -379.329     247.006
  C       58.923    -381.846     246.766
  O       57.950    -380.829     246.576
  C       58.435    -382.867     247.791
  O       57.226    -383.496     247.277
  C       59.447    -383.982     248.104
  O       59.374    -384.280     249.503
  C       58.913    -385.167     247.319
  O       59.313    -386.416     247.869
  C       57.411    -384.918     247.388
  N       55.464    -389.425     246.065
  C       55.841    -388.921     247.259
  N       56.301    -387.683     247.533
  C       56.291    -386.917     246.429
  C       55.929    -387.288     245.146
  C       55.515    -388.620     244.976
  N       55.196    -389.165     243.754
  N       56.112    -386.234     244.271
  C       56.595    -385.255     245.008
  N       56.724    -385.622     246.321
  O       57.139    -378.449     246.402
  O       58.507    -379.105     248.470
  H       59.071    -386.436     248.815
  H       57.119    -377.579     246.841
  H       55.774    -389.602     248.105
  H       56.896    -384.284     244.644
  H       56.972    -385.251     248.338
  H       59.275    -385.112     246.285
  H       60.479    -383.733     247.834
  H       58.154    -382.334     248.706
  H       59.849    -381.388     247.135
  H       55.015    -390.155     243.714
  H       55.334    -388.610     242.922
  H       59.129    -382.334     245.809
  P       60.705    -384.069     250.372
  C       60.668    -381.485     250.686
  O       61.285    -382.609     250.068
  O       61.760    -385.042     249.667
  O       60.537    -384.395     251.821
  H       62.383    -385.398     250.324
  H       61.170    -380.590     250.382
  H       60.729    -381.585     251.750
  H       59.641    -381.435     250.391

 6  7  8  9  10  11  12  13  14  15  25  28  32  33  34  35 0
 6-311+G(2d,p)
 ****
 36  39  40 0
 6-311+G(2d,p)
 ****
 1  2  3  4  5  16  17  18  19  20  21  22  23  24 0
 3-21G
 ****
 26  27  29  30  31  37  38  41  42  43  44  45  46  47 0
 3-21G
 ****
 48 0
 3-21G
 ****


