%nproc=1
%NoSave
%Mem=1900MB
#P OB98/GEN NMR

erre ene a

0 1
  C      130.710    -535.685     194.957
  O      130.122    -536.564     195.929
  P      129.426    -537.958     195.548
  C      130.992    -539.435     196.991
  O      130.529    -539.120     195.683
  C      132.259    -540.291     196.931
  O      133.414    -539.455     196.678
  C      132.609    -541.026     198.215
  O      131.757    -542.130     198.455
  C      134.069    -541.400     197.958
  O      134.168    -542.610     197.195
  C      134.567    -540.209     197.120
  N      135.503    -539.361     197.839
  C      136.814    -539.829     197.954
  O      137.119    -540.943     197.530
  N      137.748    -539.023     198.562
  C      137.380    -537.901     199.097
  N      138.350    -537.137     199.669
  C      135.980    -537.438     199.119
  C      135.105    -538.207     198.477
  O      128.728    -537.953     194.230
  O      128.406    -538.262     196.743
  H      127.678    -538.826     196.415
  H      133.638    -543.285     197.659
  H      135.710    -536.518     199.617
  H      134.054    -537.932     198.432
  H      135.045    -540.570     196.201
  H      134.624    -541.557     198.886
  H      132.558    -540.326     199.060
  H      132.151    -541.001     196.100
  H      139.301    -537.482     199.632
  H      130.208    -540.001     197.510
  H      138.175    -536.240     200.097
  H      131.168    -538.506     197.545
  P      130.707    -541.995     199.659
  C      128.601    -541.863     198.146
  O      129.422    -541.214     199.100
  O      131.395    -540.931     200.642
  O      130.406    -543.272     200.370
  H      131.241    -541.194     201.568
  H      127.585    -541.466     198.236
  H      128.572    -542.944     198.304
  H      128.974    -541.651     197.142
  H      131.109    -534.823     195.450
  H      129.963    -535.380     194.254
  H      131.496    -536.197     194.443

 3  4  5  6  7  8  9  10  11  12  13  24  27  28  29  30  32 0
 6-311+G(2d,p)
 ****
 34  35 0
 6-311+G(2d,p)
 ****
 1  2  14  15  16  17  18  19  20  21  22  23  25  26 0
 3-21G
 ****
 31  33  36  37  38  39  40  41  42  43  44  45  46 0
 3-21G
 ****


