%nproc=1
%NoSave
%Mem=1900MB
#P OB98/GEN NMR

erre ene a

0 1
  C     -109.472      66.580     -49.960
  O     -109.536      65.310     -50.590
  P     -108.558      64.159     -50.049
  C     -110.621      62.829     -49.234
  O     -109.360      63.387     -48.891
  C     -110.715      61.377     -48.780
  O     -112.100      60.945     -48.868
  C     -109.872      60.399     -49.614
  O     -109.211      59.478     -48.736
  C     -110.911      59.619     -50.402
  O     -110.439      58.331     -50.778
  C     -112.066      59.606     -49.401
  N     -115.130      55.743     -50.486
  C     -114.006      55.779     -49.686
  N     -113.615      54.604     -49.145
  N     -113.324      56.866     -49.439
  C     -113.850      57.972     -50.020
  C     -114.961      58.065     -50.826
  C     -115.670      56.843     -51.139
  O     -116.619      56.730     -51.913
  N     -115.190      59.361     -51.213
  C     -114.219      60.051     -50.647
  N     -113.351      59.245     -49.953
  O     -107.442      64.985     -49.253
  O     -107.947      63.297     -51.098
  H     -110.287      57.829     -49.955
  H     -106.557      64.769     -49.606
  H     -115.607      54.875     -50.657
  H     -114.085      61.121     -50.739
  H     -111.851      58.916     -48.575
  H     -111.167      60.176     -51.309
  H     -114.114      53.738     -49.265
  H     -109.136      60.882     -50.265
  H     -112.805      54.615     -48.537
  H     -110.432      61.324     -47.721
  H     -110.751      62.875     -50.321
  H     -111.410      63.422     -48.761
  P     -107.605      59.509     -48.765
  C     -106.904      60.991     -46.741
  O     -107.186      60.915     -48.126
  O     -107.266      59.679     -50.318
  O     -106.966      58.300     -48.167
  H     -106.375      59.333     -50.512
  H     -106.851      60.003     -46.277
  H     -107.689      61.571     -46.250
  H     -105.946      61.498     -46.602
  H     -110.174      67.243     -50.421
  H     -108.485      66.979     -50.062
  H     -109.709      66.475     -48.922

 3  4  5  6  7  8  9  10  11  12  23  26  30  31  33  0
 6-311+G(2d,p)
 ****
 35  36  37  38 0
 6-311+G(2d,p)
 ****
 1  2  13  14  15  16  17  18  19  20  21  22  24  25  27  28  29 0
 3-21G
 ****
 32  34  39  40  41  42  43  44  45  46  47  48  49 0
 3-21G
 ****


