%nproc=1
%NoSave
%Mem=1900MB
#P OB98/GEN NMR

erre ene a

0 1
  C     -372.468    -596.211      15.904
  O     -371.562    -595.140      15.768
  H     -373.470    -595.810      16.073
  H     -372.189    -596.823      16.769
  H     -372.483    -596.833      15.004
  P     -370.100    -595.485      15.212
  C     -369.769    -593.391      13.721
  O     -369.374    -594.087      14.893
  C     -370.978    -592.506      14.004
  O     -370.647    -591.583      15.075
  C     -371.444    -591.679      12.799
  O     -372.873    -591.623      12.798
  C     -370.884    -590.297      13.089
  O     -371.624    -589.259      12.444
  C     -370.944    -590.254      14.612
  N     -369.951    -585.333      15.036
  C     -371.044    -585.976      14.497
  N     -372.020    -585.199      13.994
  N     -371.171    -587.281      14.461
  C     -370.135    -587.934      15.036
  C     -368.987    -587.411      15.596
  C     -368.845    -585.971      15.606
  O     -367.895    -585.339      16.045
  N     -368.155    -588.404      16.043
  C     -368.792    -589.529      15.759
  N     -370.003    -589.292      15.152
  O     -370.394    -596.094      13.762
  O     -369.303    -596.431      16.045
  H     -371.147    -588.418      12.612
  H     -370.118    -597.030      13.732
  H     -369.889    -584.331      15.021
  H     -368.432    -590.520      15.953
  H     -371.939    -589.976      14.978
  H     -369.843    -590.239      12.731
  H     -372.014    -584.196      14.028
  H     -371.093    -592.074      11.848
  H     -372.852    -585.651      13.630
  H     -371.791    -593.141      14.381
  H     -370.028    -594.120      12.945
  H     -368.933    -592.774      13.367
  P     -373.630    -592.546      11.720
  C     -375.777    -593.178      13.030
  O     -375.214    -592.413      11.970
  O     -373.290    -594.034      12.218
  O     -373.186    -592.329      10.314
  H     -372.654    -594.450      11.603
  H     -376.830    -592.994      13.082
  H     -375.319    -592.896      13.955
  H     -375.605    -594.219      12.849

 6  7  8  9  10  11  12  13  14  15  26  29  33  34 0
 6-311+G(2d,p)
 ****
 36  38  39  40  41 0
 6-311+G(2d,p)
 ****
 1  2  3  4  5  16  17  18  19  20  21  22  23  24  25 0
 3-21G
 ****
 27  28  30  31  32  35  37  42  43  44  45  46  47 0
 3-21G
 ****
 48  49 0
 3-21G
 ****


