%nproc=1
%NoSave
%Mem=1900MB
#P OB98/GEN NMR

erre ene a

0 1
  C      357.001     121.633    -108.337
  O      355.617     121.271    -108.361
  P      355.136     120.247    -107.221
  C      352.762     121.279    -107.082
  O      353.536     120.112    -107.321
  C      351.262     120.957    -107.049
  O      350.753     120.700    -108.389
  C      350.913     119.730    -106.196
  O      349.639     119.987    -105.594
  C      350.760     118.634    -107.233
  O      350.028     117.522    -106.721
  C      350.075     119.423    -108.346
  N      347.397     116.774    -111.710
  C      347.059     117.200    -110.442
  N      345.805     116.922    -110.025
  N      347.878     117.843    -109.649
  C      349.086     118.085    -110.214
  C      349.537     117.731    -111.466
  C      348.628     116.989    -112.319
  O      348.876     116.596    -113.452
  N      350.815     118.184    -111.690
  C      351.151     118.751    -110.542
  N      350.124     118.767    -109.639
  O      355.366     121.075    -105.869
  O      355.885     118.956    -107.217
  H      350.508     117.194    -105.931
  H      356.193     120.789    -105.438
  H      346.735     116.269    -112.271
  H      352.113     119.187    -110.324
  H      349.012     119.603    -108.134
  H      351.746     118.274    -107.557
  H      345.108     116.474    -110.601
  H      351.654     119.486    -105.428
  H      345.518     117.258    -109.114
  H      350.734     121.836    -106.661
  H      352.950     122.019    -107.865
  H      353.089     121.740    -106.145
  P      349.462     119.644    -104.042
  C      348.607     121.943    -103.215
  O      348.300     120.587    -103.472
  O      350.792     120.250    -103.382
  O      349.332     118.188    -103.735
  H      351.110     119.653    -102.678
  H      347.690     122.533    -103.294
  H      349.340     122.335    -103.925
  H      349.001     122.039    -102.198
  H      357.205     122.314    -109.136
  H      357.601     120.755    -108.454
  H      357.231     122.100    -107.402

 3  4  5  6  7  8  9  10  11  12  23  26  30  31 0
 6-311+G(2d,p)
 ****
 33  35  36  37  38 0
 6-311+G(2d,p)
 ****
 1  2  13  14  15  16  17  18  19  20  21  22  24  25 0
 3-21G
 ****
 27  28  29  32  34  39  40  41  42  43  44  45  46  47  48  49 0
 3-21G
 ****


