%nproc=1
%NoSave
%Mem=1900MB
#P OB98/GEN NMR

erre ene a

0 1
  C      965.662     107.238     -80.666
  O      965.832     108.639     -80.780
  H      966.496     106.711     -81.134
  H      965.625     106.974     -79.601
  H      964.718     106.933     -81.136
  P      965.899     109.242     -82.264
  C      968.151     110.475     -81.859
  O      967.463     109.461     -82.578
  C      969.595     110.567     -82.357
  O      970.314     109.359     -82.014
  C      969.717     110.710     -83.875
  O      969.535     112.044     -84.301
  C      971.164     110.263     -84.075
  O      972.062     111.334     -83.675
  C      971.279     109.091     -83.082
  N      973.192     105.257     -85.873
  C      973.731     106.424     -85.454
  N      973.149     107.400     -84.711
  C      971.877     107.057     -84.395
  C      971.203     105.920     -84.756
  C      971.919     104.972     -85.524
  N      971.363     103.783     -85.951
  N      969.896     105.945     -84.283
  C      969.816     107.091     -83.622
  N      970.979     107.808     -83.673
  O      965.345     110.738     -82.088
  O      965.148     108.479     -83.310
  H      972.938     110.922     -83.540
  H      965.049     111.082     -82.953
  H      974.756     106.604     -85.756
  H      968.947     107.429     -83.089
  H      972.260     109.020     -82.609
  H      971.395     110.013     -85.106
  H      969.065     110.010     -84.403
  H      970.082     111.411     -81.842
  H      968.153     110.223     -80.796
  H      971.887     103.265     -86.649
  H      970.363     103.637     -85.831
  H      967.633     111.438     -82.011
  P      969.498     112.313     -85.890
  C      971.333     114.149     -86.006
  O      970.983     112.805     -86.282
  O      968.618     113.631     -86.022
  O      968.948     111.180     -86.692
  H      968.172     113.684     -86.880
  H      972.341     114.327     -86.319
  H      971.249     114.331     -84.955
  H      970.674     114.805     -86.536

 6  7  8  9  10  11  12  13  14  15  25  28  32  33  34  35 0
 6-311+G(2d,p)
 ****
 36  39  40 0
 6-311+G(2d,p)
 ****
 1  2  3  4  5  16  17  18  19  20  21  22  23  24 0
 3-21G
 ****
 26  27  29  30  31  37  38  41  42  43  44  45  46  47 0
 3-21G
 ****
 48 0
 3-21G
 ****


