%nproc=1
%NoSave
%Mem=1900MB
#P OB98/GEN NMR

erre ene a

0 1
  C      108.879      30.593      87.067
  O      108.708      29.965      85.815
  H      108.390      29.984      87.832
  H      108.409      31.580      87.049
  H      109.937      30.694      87.322
  P      109.671      30.380      84.608
  C      107.658      31.642      83.601
  O      108.745      30.760      83.352
  C      106.601      31.571      82.497
  O      107.049      32.296      81.331
  C      106.344      30.138      82.031
  O      105.422      29.402      82.813
  C      105.810      30.361      80.619
  O      104.395      30.613      80.642
  C      106.570      31.608      80.162
  N      108.274      28.883      76.192
  C      107.052      28.814      76.833
  N      106.203      27.859      76.397
  N      106.713      29.599      77.821
  C      107.699      30.440      78.211
  C      108.953      30.589      77.663
  C      109.300      29.752      76.533
  O      110.371      29.768      75.934
  N      109.681      31.548      78.325
  C      108.897      31.923      79.315
  N      107.673      31.298      79.273
  O      110.322      28.988      84.148
  O      110.731      31.384      84.949
  H      104.132      30.964      79.772
  H      111.189      29.148      83.734
  H      108.472      28.272      75.419
  H      109.155      32.657      80.070
  H      105.912      32.306      79.628
  H      105.964      29.484      79.985
  H      106.465      27.159      75.721
  H      107.287      29.586      81.957
  H      105.421      27.604      77.003
  H      105.682      32.054      82.847
  H      108.076      32.649      83.653
  H      107.210      31.426      84.574
  P      105.597      27.820      82.982
  C      104.479      26.928      80.808
  O      104.380      27.129      82.201
  O      105.241      27.587      84.524
  O      106.949      27.297      82.638
  H      106.058      27.553      85.057
  H      103.586      26.459      80.451
  H      105.320      26.301      80.597
  H      104.606      27.872      80.320

 6  7  8  9  10  11  12  13  14  15  26  29  33  34 0
 6-311+G(2d,p)
 ****
 36  38  39  40  41 0
 6-311+G(2d,p)
 ****
 1  2  3  4  5  16  17  18  19  20  21  22  23  24  25 0
 3-21G
 ****
 27  28  30  31  32  35  37  42  43  44  45  46  47 0
 3-21G
 ****
 48  49 0
 3-21G
 ****


