%nproc=1
%NoSave
%Mem=1900MB
#P OB98/GEN NMR

erre ene a

0 1
  C     -131.688      43.530      -7.798
  O     -130.403      43.673      -7.229
  H     -132.139      42.610      -7.418
  H     -131.626      43.464      -8.887
  H     -132.323      44.373      -7.512
  P     -129.458      44.860      -7.742
  C     -130.690      46.778      -6.543
  O     -129.504      45.999      -6.611
  C     -130.871      47.369      -5.143
  O     -130.533      46.350      -4.165
  C     -129.991      48.596      -4.878
  O     -130.735      49.519      -4.078
  C     -128.840      48.013      -4.086
  O     -128.199      48.998      -3.297
  C     -129.518      46.890      -3.297
  N     -128.552      45.874      -2.884
  C     -127.665      46.232      -1.864
  O     -127.731      47.350      -1.349
  N     -126.684      45.349      -1.495
  C     -126.560      44.224      -2.126
  N     -125.542      43.412      -1.737
  C     -127.455      43.815      -3.228
  C     -128.420      44.677      -3.550
  O     -129.710      45.348      -9.130
  O     -127.982      44.258      -7.592
  H     -127.774      49.660      -3.884
  H     -127.715      43.816      -8.419
  H     -127.306      42.870      -3.727
  H     -129.115      44.465      -4.354
  H     -130.015      47.287      -2.402
  H     -128.093      47.595      -4.774
  H     -129.652      49.085      -5.795
  H     -131.932      47.607      -5.000
  H     -124.939      43.745      -0.994
  H     -131.536      46.123      -6.776
  H     -125.320      42.533      -2.180
  H     -130.651      47.580      -7.286
  P     -131.329      50.864      -4.720
  C     -133.602      50.285      -5.746
  O     -132.934      50.831      -4.614
  O     -130.804      51.192      -6.080
  O     -130.917      52.004      -3.670
  H     -130.793      52.848      -4.143
  H     -134.659      50.306      -5.581
  H     -133.284      49.274      -5.894
  H     -133.365      50.864      -6.614

 6  7  8  9  10  11  12  13  14  15  16  26  30  31  32  33  35 0
 6-311+G(2d,p)
 ****
 37  38 0
 6-311+G(2d,p)
 ****
 1  2  3  4  5  17  18  19  20  21  22  23  24  25 0
 3-21G
 ****
 27  28  29  34  36  39  40  41  42  43  44  45  46 0
 3-21G
 ****


