%nproc=1
%NoSave
%Mem=1900MB
#P OB98/GEN NMR

erre ene a

0 1
  C      201.467     -76.886      45.123
  O      201.756     -78.270      45.176
  H      202.326     -76.332      45.511
  H      200.595     -76.665      45.744
  H      201.279     -76.573      44.093
  P      200.719     -79.243      44.438
  C      198.818     -80.860      45.244
  O      199.697     -79.788      45.556
  C      198.412     -81.593      46.519
  O      199.553     -82.227      47.131
  C      197.875     -80.688      47.615
  O      196.580     -80.204      47.334
  C      197.925     -81.631      48.810
  O      196.761     -82.464      48.875
  C      199.187     -82.475      48.508
  N      200.267     -82.176      49.431
  C      200.082     -82.639      50.741
  O      199.065     -83.269      51.035
  N      201.032     -82.343      51.682
  C      202.061     -81.624      51.356
  N      202.949     -81.338      52.345
  C      202.293     -81.115      49.989
  C      201.365     -81.425      49.084
  O      201.620     -80.522      44.110
  O      200.044     -78.649      43.248
  H      196.934     -83.122      49.580
  H      202.133     -80.845      44.869
  H      203.174     -80.532      49.764
  H      201.455     -81.094      48.056
  H      198.959     -83.546      48.584
  H      197.977     -81.083      49.753
  H      198.576     -79.863      47.802
  H      197.684     -82.369      46.250
  H      202.723     -81.659      53.280
  H      199.291     -81.553      44.541
  H      203.742     -80.725      52.228
  H      197.938     -80.435      44.750
  P      195.919     -79.036      48.207
  C      195.466     -78.632      50.711
  O      196.167     -79.415      49.750
  O      194.502     -78.713      47.875
  O      196.933     -77.813      48.000
  H      197.845     -77.983      48.289
  H      195.709     -78.974      51.695
  H      194.413     -78.728      50.549
  H      195.750     -77.605      50.610

 6  7  8  9  10  11  12  13  14  15  16  26  30  31  32  33  35 0
 6-311+G(2d,p)
 ****
 37  38 0
 6-311+G(2d,p)
 ****
 1  2  3  4  5  17  18  19  20  21  22  23  24  25 0
 3-21G
 ****
 27  28  29  34  36  39  40  41  42  43  44  45  46 0
 3-21G
 ****


