%nproc=1
%NoSave
%Mem=1900MB
#P OB98/GEN NMR

erre ene a

0 1
  C      -58.502      79.058     -10.007
  O      -57.777      80.252     -10.230
  H      -58.702      78.964      -8.937
  H      -57.915      78.195     -10.334
  H      -59.454      79.088     -10.544
  P      -57.361      80.562     -11.749
  C      -55.046      79.394     -11.782
  O      -56.401      79.357     -12.203
  C      -54.113      79.350     -12.988
  O      -53.894      77.987     -13.415
  C      -54.622      80.111     -14.206
  O      -54.335      81.495     -14.103
  C      -53.847      79.431     -15.326
  O      -52.505      79.948     -15.429
  C      -53.834      77.967     -14.865
  N      -55.988      76.264     -19.101
  C      -54.839      77.006     -18.922
  N      -54.197      77.397     -20.045
  N      -54.367      77.344     -17.752
  C      -55.132      76.910     -16.723
  C      -56.280      76.154     -16.770
  C      -56.774      75.761     -18.072
  O      -57.748      75.049     -18.295
  N      -56.758      75.898     -15.511
  C      -55.923      76.529     -14.708
  N      -54.929      77.173     -15.397
  O      -56.354      81.801     -11.615
  O      -58.490      80.870     -12.672
  H      -52.540      80.918     -15.486
  H      -56.423      82.355     -12.415
  H      -56.291      76.020     -20.027
  H      -55.996      76.550     -13.630
  H      -52.907      77.454     -15.145
  H      -54.318      79.591     -16.297
  H      -54.674      77.458     -20.934
  H      -55.696      79.939     -14.351
  H      -53.366      77.962     -19.923
  H      -53.142      79.748     -12.666
  H      -54.848      78.528     -11.142
  H      -54.873      80.310     -11.206
  P      -55.270      82.513     -14.920
  C      -54.413      81.702     -17.238
  O      -55.519      81.845     -16.356
  O      -54.289      83.734     -15.248
  O      -56.494      82.955     -14.191
  H      -54.808      84.522     -15.498
  H      -54.739      81.243     -18.148
  H      -53.666      81.089     -16.777
  H      -54.001      82.666     -17.453

 6  7  8  9  10  11  12  13  14  15  26  29  33  34 0
 6-311+G(2d,p)
 ****
 36  38  39  40  41 0
 6-311+G(2d,p)
 ****
 1  2  3  4  5  16  17  18  19  20  21  22  23  24  25 0
 3-21G
 ****
 27  28  30  31  32  35  37  42  43  44  45  46  47 0
 3-21G
 ****
 48  49 0
 3-21G
 ****


