%nproc=1
%NoSave
%Mem=1900MB
#P OB98/GEN NMR

erre ene a

0 1
  C      149.392     121.872     -79.406
  O      149.120     120.501     -79.621
  H      150.055     122.226     -80.199
  H      149.895     121.999     -78.444
  H      148.470     122.460     -79.426
  P      147.915     119.860     -78.774
  C      145.423     120.466     -78.367
  O      146.665     120.856     -78.936
  C      144.602     121.698     -77.995
  O      145.242     122.424     -76.924
  C      144.410     122.692     -79.135
  O      143.329     122.317     -79.980
  C      144.079     123.954     -78.354
  O      142.709     123.898     -77.898
  C      145.033     123.846     -77.156
  N      147.517     128.266     -77.281
  C      146.170     128.012     -77.113
  N      145.370     129.090     -76.966
  N      145.650     126.810     -77.097
  C      146.567     125.831     -77.279
  C      147.926     125.958     -77.462
  C      148.488     127.289     -77.462
  O      149.678     127.567     -77.597
  N      148.530     124.737     -77.615
  C      147.535     123.876     -77.548
  N      146.322     124.488     -77.349
  O      148.390     120.086     -77.260
  O      147.641     118.420     -79.048
  H      142.144     123.881     -78.692
  H      148.735     119.244     -76.909
  H      147.864     129.209     -77.297
  H      147.639     122.802     -77.630
  H      144.600     124.267     -76.243
  H      144.175     124.859     -78.956
  H      145.701     130.041     -76.991
  H      145.336     122.844     -79.702
  H      144.378     128.926     -76.839
  H      143.630     121.350     -77.618
  H      145.614     119.870     -77.469
  H      144.875     119.857     -79.093
  P      143.237     122.985     -81.435
  C      144.627     122.652     -83.600
  O      144.629     122.681     -82.179
  O      143.323     124.550     -81.108
  O      142.006     122.657     -82.209
  H      142.463     124.977     -81.300
  H      145.614     122.440     -83.954
  H      144.310     123.602     -83.976
  H      143.955     121.892     -83.940

 6  7  8  9  10  11  12  13  14  15  26  29  33  34 0
 6-311+G(2d,p)
 ****
 36  38  39  40  41 0
 6-311+G(2d,p)
 ****
 1  2  3  4  5  16  17  18  19  20  21  22  23  24  25 0
 3-21G
 ****
 27  28  30  31  32  35  37  42  43  44  45  46  47 0
 3-21G
 ****
 48  49 0
 3-21G
 ****


