%nproc=1
%NoSave
%Mem=1900MB
#P OB98/GEN NMR

erre ene a

0 1
  C     -368.679     -28.324     599.450
  O     -369.481     -27.127     599.520
  P     -370.637     -26.800     598.470
  C     -372.944     -25.647     598.728
  O     -371.541     -25.598     599.033
  C     -373.782     -24.931     599.788
  O     -373.911     -25.747     600.984
  C     -373.186     -23.611     600.276
  O     -373.400     -22.577     599.313
  C     -373.945     -23.421     601.591
  O     -375.253     -22.846     601.356
  C     -374.062     -24.866     602.098
  N     -373.091     -25.161     603.161
  C     -373.588     -25.709     604.340
  O     -374.819     -25.872     604.474
  N     -372.713     -26.037     605.346
  C     -371.453     -25.761     605.206
  N     -370.612     -26.116     606.223
  C     -370.888     -25.092     604.012
  C     -371.754     -24.829     603.046
  O     -371.429     -27.994     598.027
  O     -369.880     -26.129     597.214
  H     -375.718     -22.844     602.221
  H     -370.380     -26.335     596.400
  H     -369.838     -24.858     603.956
  H     -371.430     -24.339     602.128
  H     -375.067     -25.054     602.501
  H     -373.425     -22.743     602.287
  H     -372.111     -23.726     600.484
  H     -374.791     -24.773     599.384
  H     -371.037     -26.580     607.035
  H     -373.240     -26.718     598.696
  H     -369.616     -25.943     606.228
  H     -373.103     -25.205     597.747
  P     -372.124     -21.847     598.660
  C     -371.876     -20.192     596.705
  O     -372.675     -20.617     597.786
  O     -371.157     -22.735     597.958
  O     -371.431     -21.100     599.898
  H     -370.467     -21.061     599.751
  H     -372.488     -19.673     595.968
  H     -371.376     -21.052     596.216
  H     -371.086     -19.507     597.071
  H     -367.972     -28.327     600.254
  H     -368.157     -28.350     598.516
  H     -369.312     -29.183     599.528

 3  4  5  6  7  8  9  10  11  12  13  23  27  28  29  30  32 0
 6-311+G(2d,p)
 ****
 34  35 0
 6-311+G(2d,p)
 ****
 1  2  14  15  16  17  18  19  20  21  22  24  25  26 0
 3-21G
 ****
 31  33  36  37  38  39  40  41  42  43  44  45  46 0
 3-21G
 ****


