%nproc=1
%NoSave
%Mem=1900MB
#P OB98/GEN NMR

erre ene a

0 1
  C      -32.143     -29.516     -27.128
  O      -32.957     -29.756     -25.996
  H      -32.720     -29.663     -28.046
  H      -31.793     -28.481     -27.094
  H      -31.276     -30.183     -27.121
  P      -33.551     -31.240     -25.843
  C      -35.645     -30.497     -27.183
  O      -34.587     -31.434     -27.054
  C      -36.843     -31.147     -27.871
  O      -37.876     -30.168     -28.102
  C      -36.540     -31.755     -29.236
  O      -35.928     -33.032     -29.122
  C      -37.944     -31.860     -29.816
  O      -38.611     -33.013     -29.270
  C      -38.603     -30.573     -29.293
  N      -41.398     -27.808     -32.570
  C      -41.733     -28.785     -31.699
  N      -40.936     -29.461     -30.845
  C      -39.669     -29.022     -30.933
  C      -39.179     -28.020     -31.755
  C      -40.104     -27.400     -32.611
  N      -39.734     -26.447     -33.550
  N      -37.818     -27.862     -31.576
  C      -37.492     -28.765     -30.674
  N      -38.576     -29.485     -30.251
  O      -34.492     -31.114     -24.549
  O      -32.532     -32.320     -25.683
  H      -38.000     -33.766     -29.376
  H      -34.003     -31.429     -23.767
  H      -42.781     -29.068     -31.691
  H      -36.489     -28.935     -30.304
  H      -39.644     -30.734     -28.997
  H      -37.951     -31.966     -30.906
  H      -35.945     -31.077     -29.857
  H      -37.252     -31.906     -27.189
  H      -35.307     -29.643     -27.780
  H      -40.334     -26.431     -34.371
  H      -38.737     -26.385     -33.711
  H      -35.926     -30.145     -26.186
  P      -34.846     -33.445     -30.232
  C      -36.754     -34.063     -31.867
  O      -35.574     -33.298     -31.657
  O      -34.716     -35.027     -30.032
  O      -33.522     -32.773     -30.110
  H      -33.782     -35.262     -29.865
  H      -37.133     -33.872     -32.849
  H      -37.491     -33.789     -31.141
  H      -36.526     -35.104     -31.769

 6  7  8  9  10  11  12  13  14  15  25  28  32  33  34  35 0
 6-311+G(2d,p)
 ****
 36  39  40 0
 6-311+G(2d,p)
 ****
 1  2  3  4  5  16  17  18  19  20  21  22  23  24 0
 3-21G
 ****
 26  27  29  30  31  37  38  41  42  43  44  45  46  47  48 0
 3-21G
 ****


