%nproc=1
%NoSave
%Mem=1900MB
#P OB98/GEN NMR

erre ene a

0 1
  C     -133.281     -52.853    -570.165
  O     -133.566     -54.210    -569.800
  P     -135.067     -54.535    -569.324
  C     -136.263     -54.870    -567.069
  O     -135.168     -54.297    -567.744
  C     -136.794     -53.948    -565.950
  O     -135.909     -53.949    -564.801
  C     -136.961     -52.487    -566.403
  O     -138.091     -51.947    -565.699
  C     -135.700     -51.829    -565.868
  O     -135.863     -50.414    -565.767
  C     -135.512     -52.579    -564.544
  N     -134.158     -52.491    -564.014
  C     -133.852     -51.374    -563.235
  O     -134.681     -50.474    -563.079
  N     -132.592     -51.273    -562.689
  C     -131.703     -52.184    -562.941
  N     -130.477     -52.030    -562.368
  C     -131.967     -53.360    -563.805
  C     -133.207     -53.440    -564.298
  O     -135.167     -56.128    -569.488
  O     -136.109     -53.840    -570.150
  H     -134.982     -50.025    -565.534
  H     -135.973     -56.368    -569.990
  H     -131.199     -54.088    -564.001
  H     -133.495     -54.257    -564.932
  H     -136.199     -52.180    -563.773
  H     -134.852     -52.026    -566.536
  H     -137.100     -52.370    -567.477
  H     -137.768     -54.328    -565.616
  H     -130.334     -51.217    -561.785
  H     -135.970     -55.830    -566.611
  H     -129.724     -52.666    -562.507
  H     -137.054     -55.109    -567.788
  P     -139.447     -51.719    -566.525
  C     -140.178     -49.995    -568.291
  O     -139.225     -50.317    -567.294
  O     -140.451     -51.279    -565.350
  O     -139.999     -52.847    -567.329
  H     -141.361     -51.174    -565.718
  H     -139.977     -48.977    -568.643
  H     -141.187     -50.040    -567.890
  H     -140.063     -50.680    -569.139
  H     -132.256     -52.771    -570.460
  H     -133.463     -52.213    -569.327
  H     -133.911     -52.563    -570.980

 3  4  5  6  7  8  9  10  11  12  13  21  23  27  28  29  30  32 0
 6-311+G(2d,p)
 ****
 34  35 0
 6-311+G(2d,p)
 ****
 1  2  14  15  16  17  18  19  20  22  24  25  26 0
 3-21G
 ****
 31  33  36  37  38  39  40  41  42  43  44  45  46 0
 3-21G
 ****


