%nproc=1
%NoSave
%Mem=1900MB
#P OB98/GEN NMR

erre ene a

0 1
  C      -14.860       3.144     -33.315
  O      -13.676       3.100     -34.091
  P      -12.623       4.303     -34.014
  C      -13.109       5.090     -36.447
  O      -13.097       5.409     -35.072
  C      -12.986       6.353     -37.309
  O      -14.113       7.210     -37.005
  C      -11.741       7.191     -37.044
  O      -11.535       8.065     -38.156
  C      -12.161       7.998     -35.835
  O      -11.364       9.166     -35.662
  C      -13.664       8.256     -36.110
  N      -14.453       8.237     -34.865
  C      -14.676       9.463     -34.244
  O      -14.313      10.534     -34.727
  N      -15.255       9.409     -33.005
  C      -15.575       8.265     -32.335
  O      -15.799       8.219     -31.131
  C      -15.540       7.030     -33.133
  C      -14.963       7.067     -34.337
  O      -11.314       3.671     -34.684
  O      -12.352       4.815     -32.642
  H      -10.426       8.891     -35.788
  H      -10.711       3.337     -33.994
  H      -15.284      10.283     -32.495
  H      -15.927       6.124     -32.688
  H      -14.875       6.159     -34.928
  H      -13.822       9.226     -36.596
  H      -12.044       7.382     -34.935
  H      -10.837       6.606     -36.850
  H      -13.048       6.077     -38.368
  H      -14.030       4.549     -36.683
  H      -12.282       4.413     -36.687
  P      -10.025       8.418     -38.564
  C      -10.050      10.828     -37.677
  O       -9.524       9.526     -37.518
  O       -9.795       8.741     -40.002
  O       -9.214       7.112     -38.109
  H       -8.354       7.083     -38.567
  H      -10.079      11.318     -36.700
  H      -11.062      10.804     -38.091
  H       -9.399      11.400     -38.342
  H      -15.437       2.261     -33.495
  H      -15.433       4.006     -33.586
  H      -14.605       3.198     -32.277

 3  4  5  6  7  8  9  10  11  12  13  23  28  29  30  31  32 0
 6-311+G(2d,p)
 ****
 33  34 0
 6-311+G(2d,p)
 ****
 1  2  14  15  16  17  18  19  20  21  22  24  25  26  27 0
 3-21G
 ****
 35  36  37  38  39  40  41  42  43  44  45 0
 3-21G
 ****


