%nproc=1
%NoSave
%Mem=1900MB
#P OB98/GEN NMR

erre ene a

0 1
  C      -70.714      69.154      84.954
  O      -72.114      69.369      85.033
  P      -72.746      69.681      86.477
  C      -73.721      67.294      86.856
  O      -72.793      68.285      87.269
  C      -74.170      66.449      88.051
  O      -75.203      65.532      87.607
  C      -73.064      65.609      88.699
  O      -73.368      65.520      90.097
  C      -73.244      64.248      88.052
  O      -72.669      63.194      88.818
  C      -74.764      64.194      87.931
  N      -75.870      59.371      86.878
  C      -75.361      59.931      88.037
  N      -75.180      59.089      89.078
  N      -75.060      61.197      88.163
  C      -75.310      61.917      87.044
  C      -75.776      61.472      85.827
  C      -76.138      60.077      85.713
  O      -76.672      59.557      84.737
  N      -75.815      62.482      84.903
  C      -75.453      63.551      85.584
  N      -75.182      63.268      86.896
  O      -74.280      69.977      86.138
  O      -72.100      70.795      87.241
  H      -72.952      62.345      88.419
  H      -74.436      70.933      86.023
  H      -76.099      58.392      86.847
  H      -75.374      64.550      85.185
  H      -75.251      63.889      88.866
  H      -72.770      64.245      87.062
  H      -75.418      58.110      89.061
  H      -72.060      66.019      88.553
  H      -74.839      59.480      89.948
  H      -74.626      67.118      88.794
  H      -73.236      66.634      86.130
  H      -74.578      67.771      86.373
  P      -72.148      65.576      91.135
  C      -71.973      62.995      91.272
  O      -71.320      64.216      90.984
  O      -72.879      65.407      92.553
  O      -71.351      66.840      91.099
  H      -72.387      65.902      93.236
  H      -71.450      62.186      90.759
  H      -73.016      63.008      90.939
  H      -71.941      62.810      92.349
  H      -70.440      68.959      83.938
  H      -70.447      68.315      85.563
  H      -70.199      70.025      85.302

 3  4  5  6  7  8  9  10  11  12  23  26  30  31 0
 6-311+G(2d,p)
 ****
 33  35  36  37  38 0
 6-311+G(2d,p)
 ****
 1  2  13  14  15  16  17  18  19  20  21  22  24  25 0
 3-21G
 ****
 27  28  29  32  34  39  40  41  42  43  44  45  46  47  48  49 0
 3-21G
 ****


