%nproc=1
%NoSave
%Mem=1900MB
#P OB98/GEN NMR

erre ene a

0 1
  C       43.757    -923.289     -12.574
  O       44.249    -921.972     -12.714
  H       43.189    -923.349     -11.647
  H       44.586    -924.003     -12.535
  H       43.095    -923.534     -13.410
  P       45.093    -921.662     -14.053
  C       47.248    -920.888     -12.801
  O       46.161    -920.535     -13.643
  C       47.219    -920.034     -11.519
  O       47.572    -918.667     -11.873
  C       45.831    -919.983     -10.846
  O       46.024    -919.812      -9.430
  C       45.256    -918.705     -11.428
  O       44.161    -918.269     -10.665
  C       46.501    -917.827     -11.399
  N       44.122    -913.333     -11.900
  C       44.100    -914.266     -10.910
  N       44.771    -915.437     -10.852
  C       45.550    -915.589     -11.944
  C       45.673    -914.734     -13.025
  C       44.901    -913.552     -12.979
  N       44.898    -912.617     -13.984
  N       46.548    -915.257     -13.957
  C       46.954    -916.404     -13.439
  N       46.375    -916.647     -12.227
  O       44.035    -920.882     -14.969
  O       45.665    -922.851     -14.743
  H       43.704    -917.508     -11.092
  H       43.571    -921.510     -15.549
  H       43.465    -914.034     -10.068
  H       47.637    -917.097     -13.906
  H       46.757    -917.482     -10.380
  H       44.902    -918.861     -12.450
  H       45.227    -920.880     -11.031
  H       47.987    -920.401     -10.829
  H       48.177    -920.724     -13.339
  H       47.165    -921.949     -12.533
  H       44.298    -911.814     -13.894
  H       45.451    -912.787     -14.820
  P       45.922    -921.102      -8.474
  C       44.112    -919.941      -7.003
  O       45.302    -920.695      -7.044
  O       47.472    -921.357      -8.105
  O       45.331    -922.331      -9.087
  H       47.676    -922.312      -8.195
  H       43.840    -919.759      -5.984
  H       43.329    -920.484      -7.489
  H       44.264    -919.008      -7.504

 6  7  8  9  10  11  12  13  14  15  25  28  32  33  34  35 0
 6-311+G(2d,p)
 ****
 36  37  40 0
 6-311+G(2d,p)
 ****
 1  2  3  4  5  16  17  18  19  20  21  22  23  24 0
 3-21G
 ****
 26  27  29  30  31  38  39 41  42  43  44  45  46  47  48 0
 3-21G
 ****


