%nproc=1
%NoSave
%Mem=1900MB
#P OB98/GEN NMR

erre ene a

0 1
  C      -22.804      30.287     217.178
  O      -23.993      31.041     217.051
  H      -22.456      30.349     218.211
  H      -22.031      30.698     216.522
  H      -22.982      29.237     216.928
  P      -24.808      30.904     215.677
  C      -24.540      33.321     214.753
  O      -25.401      32.362     215.350
  C      -24.951      34.731     215.178
  O      -24.509      34.952     216.548
  C      -24.342      35.847     214.317
  O      -25.310      36.899     214.188
  C      -23.179      36.336     215.160
  O      -22.772      37.667     214.863
  C      -23.763      36.185     216.568
  N      -22.731      36.157     217.604
  C      -21.872      37.250     217.682
  O      -21.974      38.273     217.003
  N      -20.854      37.139     218.596
  C      -20.604      36.062     219.397
  O      -19.664      36.014     220.181
  C      -21.538      34.936     219.263
  C      -22.540      35.032     218.384
  O      -26.103      30.067     216.109
  O      -24.065      30.268     214.550
  H      -25.936      29.110     216.022
  H      -22.105      37.925     215.532
  H      -20.223      37.922     218.664
  H      -21.366      34.058     219.876
  H      -23.236      34.208     218.245
  H      -24.473      36.993     216.779
  H      -22.316      35.679     215.023
  H      -24.020      35.520     213.322
  H      -26.048      34.793     215.179
  H      -24.608      33.241     213.663
  H      -23.506      33.116     215.059
  P      -25.380      37.671     212.781
  C      -26.213      39.942     213.794
  O      -26.488      38.815     212.974
  O      -26.091      36.572     211.866
  O      -24.042      38.132     212.303
  H      -26.751      36.043     212.345
  H      -27.062      40.593     213.803
  H      -25.365      40.467     213.406
  H      -26.004      39.615     214.791

 6  7  8  9  10  11  12  13  14  15  16  27  31  32  33  34  35 0
 6-311+G(2d,p)
 ****
 36  37 0
 6-311+G(2d,p)
 ****
 1  2  3  4  5  17  18  19  20  21  22  23  24  25 0
 3-21G
 ****
 26  28  29  30  38  39  40  41  42  43  44  45 0
 3-21G
 ****


