%nproc=1
%NoSave
%Mem=1900MB
#P OB98/GEN NMR

erre ene a

0 1
  C     -142.817    -442.965      37.793
  O     -142.239    -444.072      38.455
  H     -142.942    -442.132      38.489
  H     -142.152    -442.650      36.984
  H     -143.786    -443.243      37.367
  P     -143.047    -444.668      39.706
  C     -143.898    -446.898      38.670
  O     -144.211    -445.569      39.064
  C     -145.167    -447.591      38.186
  O     -146.131    -447.670      39.260
  C     -145.871    -446.859      37.050
  O     -145.301    -447.141      35.784
  C     -147.271    -447.440      37.165
  O     -147.296    -448.765      36.607
  C     -147.456    -447.498      38.688
  N     -151.759    -445.459      40.568
  C     -151.461    -446.707      40.148
  N     -150.286    -447.175      39.681
  C     -149.356    -446.208      39.681
  C     -149.509    -444.892      40.086
  C     -150.784    -444.519      40.544
  N     -151.100    -443.240      40.943
  N     -148.330    -444.192      39.918
  C     -147.479    -445.075      39.439
  N     -148.061    -446.300      39.247
  O     -143.846    -443.405      40.280
  O     -142.228    -445.362      40.741
  H     -147.103    -448.676      35.654
  H     -144.194    -443.600      41.171
  H     -152.277    -447.423      40.190
  H     -146.442    -444.876      39.205
  H     -148.070    -448.349      39.006
  H     -148.018    -446.850      36.627
  H     -145.916    -445.780      37.234
  H     -144.910    -448.617      37.894
  H     -143.488    -447.439      39.530
  H     -152.072    -443.038      41.112
  H     -150.428    -442.504      40.791
  H     -143.152    -446.875      37.870
  P     -145.524    -446.063      34.614
  C     -143.075    -445.198      34.576
  O     -144.439    -444.905      34.853
  O     -146.903    -445.369      35.026
  O     -145.568    -446.640      33.237
  H     -147.403    -445.091      34.235
  H     -142.476    -444.336      34.782
  H     -142.970    -445.468      33.546
  H     -142.753    -446.011      35.192

 6  7  8  9  10  11  12  13  14  15  25  28  32  33  34  35 0
 6-311+G(2d,p)
 ****
 36  39  40 0
 6-311+G(2d,p)
 ****
 1  2  3  4  5  16  17  18  19  20  21  22  23  24 0
 3-21G
 ****
 26  27  29  30  31  37  38  41  42  43  44  45  46  47 0
 3-21G
 ****
 48 0
 3-21G
 ****


