%nproc=1
%NoSave
%Mem=1900MB
#P OB98/GEN NMR

erre ene a

0 1
  C     -126.082    -610.611     166.479
  O     -127.420    -610.634     166.945
  H     -125.677    -611.625     166.530
  H     -125.479    -609.955     167.112
  H     -126.046    -610.267     165.442
  P     -128.271    -609.294     166.736
  C     -130.715    -610.159     166.343
  O     -129.769    -609.594     167.241
  C     -131.750    -610.976     167.116
  O     -131.188    -612.221     167.566
  C     -132.231    -610.314     168.400
  O     -133.087    -609.220     168.160
  C     -132.924    -611.489     169.081
  O     -134.266    -611.655     168.616
  C     -132.036    -612.687     168.644
  N     -131.278    -613.232     169.754
  C     -131.867    -614.321     170.408
  O     -132.946    -614.763     170.006
  N     -131.239    -614.852     171.499
  C     -130.137    -614.323     171.924
  N     -129.583    -614.878     173.043
  C     -129.483    -613.169     171.271
  C     -130.104    -612.676     170.200
  O     -128.428    -609.231     165.143
  O     -127.668    -608.070     167.337
  H     -134.518    -612.576     168.832
  H     -128.728    -610.065     164.746
  H     -128.554    -612.774     171.661
  H     -129.687    -611.836     169.657
  H     -132.658    -613.487     168.228
  H     -132.971    -611.354     170.162
  H     -131.371    -610.018     169.016
  H     -132.588    -611.193     166.440
  H     -130.094    -615.627     173.484
  H     -130.214    -610.791     165.596
  H     -128.770    -614.503     173.507
  H     -131.200    -609.339     165.805
  P     -133.045    -607.910     169.079
  C     -132.989    -605.977     167.370
  O     -133.796    -606.747     168.264
  O     -131.693    -607.531     169.583
  O     -134.101    -608.242     170.233
  H     -135.005    -608.410     169.923
  H     -133.595    -605.239     166.888
  H     -132.559    -606.622     166.633
  H     -132.209    -605.494     167.920

 6  7  8  9  10  11  12  13  14  15  16  26  30  31  32  33  35 0
 6-311+G(2d,p)
 ****
 37  38 0
 6-311+G(2d,p)
 ****
 1  2  3  4  5  17  18  19  20  21  22  23  24  25 0
 3-21G
 ****
 27  28  29  34  36  39  40  41  42  43  44  45  46 0
 3-21G
 ****


