%nproc=1
%NoSave
%Mem=1900MB
#P OB98/GEN NMR

erre ene a

0 1
  C      289.098    -242.081    -270.019
  O      290.473    -241.720    -270.078
  P      291.429    -242.591    -271.032
  C      293.003    -242.856    -268.982
  O      292.886    -242.524    -270.361
  C      294.458    -243.134    -268.623
  O      294.934    -244.303    -269.321
  C      295.424    -242.014    -268.991
  O      295.436    -240.972    -268.024
  C      296.751    -242.762    -268.981
  O      297.207    -242.926    -267.622
  C      296.352    -244.119    -269.568
  N      299.856    -245.246    -273.120
  C      299.930    -245.172    -271.774
  N      298.959    -244.852    -270.899
  C      297.818    -244.560    -271.547
  C      297.601    -244.560    -272.916
  C      298.683    -244.932    -273.725
  N      298.599    -245.037    -275.095
  N      296.300    -244.203    -273.201
  C      295.734    -244.002    -272.030
  N      296.607    -244.215    -270.998
  O      291.577    -241.663    -272.330
  O      290.918    -243.950    -271.369
  H      297.979    -243.530    -267.659
  H      291.815    -242.204    -273.103
  H      300.902    -245.407    -271.342
  H      294.703    -243.710    -271.878
  H      296.873    -244.958    -269.085
  H      297.539    -242.240    -269.524
  H      295.226    -241.635    -270.000
  H      294.507    -243.340    -267.544
  H      292.409    -243.759    -268.784
  H      299.360    -245.487    -275.584
  H      297.675    -244.999    -275.520
  H      292.606    -242.032    -268.384
  P      294.686    -239.614    -268.428
  C      296.604    -238.112    -267.505
  O      295.249    -238.509    -267.406
  O      293.186    -239.865    -267.924
  O      294.758    -239.276    -269.874
  H      292.560    -239.318    -268.443
  H      296.736    -237.167    -266.977
  H      296.899    -237.969    -268.556
  H      297.247    -238.872    -267.043
  H      288.585    -241.422    -269.351
  H      289.008    -243.087    -269.666
  H      288.667    -242.006    -270.996

 3  4  5  6  7  8  9  10  11  12  22  25  29  30  31  32 0
 6-311+G(2d,p)
 ****
 33  36  37 0
 6-311+G(2d,p)
 ****
 1  2  13  14  15  16  17  18  19  20  21  23  24  26 0
 3-21G
 ****
 27  28  34  35  38  39  40  41  42  43  44  45  46  47  48 0
 3-21G
 ****


