%nproc=1
%NoSave
%Mem=1900MB
#P OB98/GEN NMR

erre ene a

0 1
  C       13.656    -295.993     500.383
  O       12.254    -296.127     500.155
  P       11.425    -296.936     501.268
  C        8.928    -297.556     501.598
  O        9.962    -297.231     500.681
  C        7.552    -297.282     500.983
  O        7.251    -295.870     500.925
  C        7.409    -297.800     499.560
  O        7.159    -299.197     499.573
  C        6.228    -296.983     499.042
  O        4.975    -297.577     499.431
  C        6.426    -295.630     499.756
  N        5.704    -292.402     495.908
  C        4.895    -293.429     496.369
  N        3.719    -293.602     495.728
  N        5.216    -294.209     497.365
  C        6.424    -293.919     497.913
  C        7.293    -292.916     497.568
  C        6.934    -292.053     496.454
  O        7.601    -291.120     496.027
  N        8.390    -292.896     498.393
  C        8.238    -293.966     499.155
  N        7.024    -294.582     498.949
  O       11.176    -295.844     502.409
  O       12.152    -298.127     501.798
  H        4.813    -297.385     500.372
  H       11.709    -296.060     503.196
  H        5.414    -291.838     495.129
  H        8.950    -294.312     499.883
  H        5.472    -295.225     500.116
  H        6.225    -296.923     497.954
  H        3.409    -293.031     494.949
  H        8.315    -297.566     498.979
  H        3.112    -294.343     496.049
  H        6.800    -297.757     501.633
  H        9.046    -296.980     502.518
  H        9.023    -298.613     501.873
  P        8.271    -300.168     498.959
  C        8.788    -302.694     499.254
  O        7.812    -301.676     499.253
  O        9.522    -299.948     499.942
  O        8.639    -299.872     497.543
  H       10.342    -299.862     499.413
  H        8.470    -303.485     499.942
  H        9.771    -302.318     499.580
  H        8.875    -303.117     498.247
  H       14.097    -295.440     499.580
  H       14.103    -296.964     500.435
  H       13.820    -295.475     501.305

 3  4  5  6  7  8  9  10  11  12  23  26  30  31 0
 6-311+G(2d,p)
 ****
 33  35  36  37  38 0
 6-311+G(2d,p)
 ****
 1  2  13  14  15  16  17  18  19  20  21  22  24  25 0
 3-21G
 ****
 27  28  29  32  34  39  40  41  42  43  44  45  46  47  48  49 0
 3-21G
 ****


