%nproc=1
%NoSave
%Mem=1900MB
#P OB98/GEN NMR

erre ene a

0 1
  C      804.680    -155.033    -242.570
  O      804.137    -156.330    -242.480
  H      803.870    -154.305    -242.457
  H      805.158    -154.873    -243.542
  H      805.411    -154.873    -241.769
  P      805.078    -157.577    -242.871
  C      806.063    -158.475    -245.087
  O      805.117    -157.594    -244.475
  C      805.716    -158.731    -246.555
  O      804.442    -159.405    -246.656
  C      805.553    -157.454    -247.369
  O      806.766    -156.756    -247.594
  C      804.743    -157.927    -248.569
  O      805.536    -158.477    -249.620
  C      803.872    -159.051    -247.936
  N      802.474    -158.649    -247.816
  C      801.948    -157.973    -248.909
  O      802.602    -157.685    -249.914
  N      800.639    -157.578    -248.791
  C      799.849    -157.756    -247.697
  O      798.697    -157.339    -247.642
  C      800.468    -158.453    -246.564
  C      801.732    -158.869    -246.671
  O      804.708    -158.895    -242.258
  O      806.546    -157.076    -242.479
  H      804.917    -158.757    -250.327
  H      807.177    -157.834    -242.422
  H      800.241    -157.089    -249.580
  H      799.865    -158.614    -245.669
  H      802.216    -159.389    -245.844
  H      803.917    -159.951    -248.553
  H      804.154    -157.114    -249.002
  H      804.911    -156.763    -246.813
  H      806.479    -159.389    -246.980
  H      806.032    -159.430    -244.537
  H      807.072    -158.051    -244.992
  P      806.903    -155.172    -247.448
  C      806.363    -153.069    -248.892
  O      806.322    -154.491    -248.787
  O      808.184    -154.655    -246.886
  O      805.743    -154.847    -246.373
  H      806.051    -154.100    -245.823
  H      805.945    -152.768    -249.830
  H      807.378    -152.736    -248.831
  H      805.797    -152.636    -248.094

 6  7  8  9  10  11  12  13  14  15  16  26  31  32  33  34  35 0
 6-311+G(2d,p)
 ****
 36  37 0
 6-311+G(2d,p)
 ****
 1  2  3  4  5  17  18  19  20  21  22  23  24  25 0
 3-21G
 ****
 27  28  29  30  38  39  40  41  42  43  44  45 0
 3-21G
 ****


