%nproc=1
%NoSave
%Mem=1900MB
#P OB98/GEN NMR

erre ene a

0 1
  C     -525.653     148.593     293.107
  O     -526.848     149.239     293.544
  P     -526.861     149.898     295.007
  C     -527.373     152.436     294.745
  O     -527.878     151.137     295.012
  C     -528.446     153.314     294.081
  O     -528.781     152.814     292.760
  C     -529.763     153.356     294.843
  O     -529.714     154.294     295.904
  C     -530.716     153.837     293.745
  O     -530.595     155.258     293.578
  C     -530.178     153.115     292.511
  N     -534.715     150.937     291.502
  C     -534.366     152.210     291.807
  N     -533.138     152.717     292.064
  C     -532.207     151.735     291.998
  C     -532.412     150.403     291.714
  C     -533.741     150.002     291.462
  N     -534.067     148.695     291.164
  N     -531.220     149.705     291.760
  C     -530.305     150.617     292.034
  N     -530.864     151.864     292.201
  O     -525.431     150.612     295.092
  O     -527.052     148.912     296.115
  H     -529.653     155.439     293.364
  H     -525.087     150.558     296.014
  H     -535.192     152.916     291.818
  H     -529.249     150.435     292.129
  H     -530.224     153.739     291.601
  H     -531.762     153.627     293.977
  H     -530.061     152.352     295.176
  H     -528.035     154.326     293.978
  H     -526.477     152.376     294.098
  H     -535.042     148.487     290.968
  H     -533.345     147.991     291.107
  H     -527.039     152.886     295.690
  P     -530.443     153.888     297.267
  C     -528.426     153.243     298.800
  O     -529.389     154.228     298.437
  O     -530.445     152.290     297.207
  O     -531.810     154.456     297.442
  H     -531.235     151.945     297.687
  H     -527.629     153.734     299.366
  H     -527.993     152.786     297.906
  H     -528.888     152.475     299.431
  H     -525.797     148.206     292.120
  H     -525.417     147.790     293.774
  H     -524.848     149.298     293.100

 3  4  5  6  7  8  9  10  11  12  22  25  29  30  31  32 0
 6-311+G(2d,p)
 ****
 33  36  37 0
 6-311+G(2d,p)
 ****
 1  2  13  14  15  16  17  18  19  20  21  23  24  26 0
 3-21G
 ****
 27  28  34  35  38  39  40  41  42  43  44  45  46  47  48 0
 3-21G
 ****


