%nproc=1
%NoSave
%Mem=1900MB
#P OB98/GEN NMR

erre ene a

0 1
  C      500.772    -381.249    -529.436
  O      501.514    -380.109    -529.053
  H      501.183    -381.639    -530.371
  H      499.724    -380.970    -529.599
  H      500.837    -382.026    -528.668
  P      501.188    -379.482    -527.608
  C      503.170    -380.890    -526.608
  O      501.805    -380.510    -526.544
  C      503.582    -381.649    -525.352
  O      503.267    -380.840    -524.186
  C      502.870    -383.002    -525.184
  O      503.779    -383.923    -524.584
  C      501.754    -382.684    -524.200
  O      501.302    -383.852    -523.509
  C      502.425    -381.624    -523.318
  N      501.456    -380.784    -522.606
  C      501.046    -381.226    -521.344
  O      501.492    -382.277    -520.876
  N      500.115    -380.493    -520.652
  C      499.589    -379.442    -521.211
  N      498.650    -378.769    -520.484
  C      499.957    -378.959    -522.555
  C      500.889    -379.671    -523.191
  O      499.609    -379.729    -527.500
  O      501.606    -378.060    -527.441
  H      502.043    -384.197    -522.965
  H      499.334    -380.616    -527.786
  H      499.475    -378.090    -522.978
  H      501.229    -379.393    -524.177
  H      503.075    -382.093    -522.568
  H      500.897    -382.250    -524.723
  H      502.503    -383.399    -526.135
  H      504.674    -381.784    -525.360
  H      498.411    -379.144    -519.574
  H      503.804    -380.006    -526.723
  H      498.135    -377.976    -520.835
  H      503.304    -381.517    -527.497
  P      504.102    -385.308    -525.327
  C      506.532    -384.608    -525.876
  O      505.284    -385.083    -526.383
  O      502.915    -386.048    -525.845
  O      504.825    -386.158    -524.175
  H      504.497    -387.081    -524.234
  H      507.228    -384.503    -526.682
  H      506.916    -385.307    -525.162
  H      506.387    -383.659    -525.404

 6  7  8  9  10  11  12  13  14  15  16  26  30  31  32  33  35 0
 6-311+G(2d,p)
 ****
 37  38 0
 6-311+G(2d,p)
 ****
 1  2  3  4  5  17  18  19  20  21  22  23  24  25 0
 3-21G
 ****
 27  28  29  34  36  39  40  41  42  43  44  45  46 0
 3-21G
 ****


