%nproc=1
%NoSave
%Mem=1900MB
#P OB98/GEN NMR

erre ene a

0 1
  C     -187.415     301.065    -712.777
  O     -188.652     301.426    -712.202
  H     -186.640     301.718    -712.376
  H     -187.462     301.197    -713.866
  H     -187.153     300.028    -712.543
  P     -189.901     300.433    -712.362
  C     -190.424     300.465    -709.830
  O     -190.899     300.732    -711.145
  C     -191.261     301.216    -708.785
  O     -190.840     302.608    -708.750
  C     -192.754     301.207    -709.153
  O     -193.583     301.301    -707.995
  C     -192.898     302.486    -709.970
  O     -194.236     302.985    -709.998
  C     -191.910     303.421    -709.265
  N     -192.519     308.099    -711.202
  C     -193.413     307.323    -710.483
  N     -194.634     307.874    -710.254
  N     -193.153     306.119    -710.060
  C     -191.927     305.669    -710.421
  C     -190.958     306.335    -711.147
  C     -191.249     307.686    -711.586
  O     -190.503     308.401    -712.238
  N     -189.842     305.554    -711.334
  C     -190.132     304.421    -710.722
  N     -191.378     304.449    -710.138
  O     -189.297     299.000    -711.964
  O     -190.535     300.407    -713.721
  H     -194.216     303.839    -710.462
  H     -189.835     298.287    -712.349
  H     -192.762     309.030    -711.472
  H     -189.476     303.555    -710.674
  H     -192.387     303.914    -708.415
  H     -192.616     302.267    -710.996
  H     -194.932     308.707    -710.730
  H     -193.039     300.340    -709.735
  H     -195.388     307.219    -710.018
  H     -191.072     300.803    -707.785
  H     -189.381     300.795    -709.800
  H     -190.432     299.394    -709.635
  P     -195.159     301.077    -708.174
  C     -195.669     298.983    -706.630
  O     -195.757     300.375    -706.870
  O     -195.256     299.938    -709.297
  O     -195.926     302.309    -708.556
  H     -195.688     300.291    -710.103
  H     -196.139     298.751    -705.697
  H     -194.640     298.692    -706.593
  H     -196.161     298.453    -707.419

 6  7  8  9  10  11  12  13  14  15  26  29  33  34 0
 6-311+G(2d,p)
 ****
 36  38  39  40  41 0
 6-311+G(2d,p)
 ****
 1  2  3  4  5  16  17  18  19  20  21  22  23  24  25 0
 3-21G
 ****
 27  28  30  31  32  35  37  42  43  44  45  46  47 0
 3-21G
 ****
 48  49 0
 3-21G
 ****


