%nproc=1
%NoSave
%Mem=1900MB
#P OB98/GEN NMR

erre ene a

0 1
  C     -232.846     338.004    -143.415
  O     -232.754     337.167    -142.247
  P     -232.092     337.651    -140.870
  C     -233.531     339.739    -140.410
  O     -233.190     338.427    -139.990
  C     -234.925     340.156    -139.911
  O     -235.940     339.244    -140.447
  C     -235.080     340.161    -138.377
  O     -235.900     341.287    -138.055
  C     -235.811     338.847    -138.129
  O     -236.448     338.778    -136.863
  C     -236.773     338.852    -139.328
  N     -237.436     337.583    -139.608
  C     -238.775     337.628    -140.031
  O     -239.388     338.694    -140.101
  N     -239.404     336.441    -140.342
  C     -238.764     335.317    -140.237
  N     -239.437     334.184    -140.571
  C     -237.367     335.221    -139.784
  C     -236.769     336.377    -139.493
  O     -230.820     338.426    -141.049
  O     -231.812     336.309    -140.033
  H     -230.981     336.413    -139.523
  H     -235.749     338.761    -136.177
  H     -236.872     334.267    -139.720
  H     -235.728     336.393    -139.182
  H     -237.519     339.636    -139.193
  H     -235.090     338.023    -138.187
  H     -234.129     340.244    -137.846
  H     -235.152     341.150    -140.320
  H     -240.406     334.290    -140.892
  H     -233.530     339.770    -141.507
  H     -239.044     333.261    -140.538
  H     -232.773     340.445    -140.042
  P     -235.210     342.665    -137.589
  C     -234.763     344.407    -139.464
  O     -235.698     343.819    -138.589
  O     -233.690     342.442    -138.044
  O     -235.263     342.962    -136.121
  H     -233.103     342.989    -137.495
  H     -235.216     344.492    -140.466
  H     -233.844     343.823    -139.557
  H     -234.515     345.415    -139.108
  H     -233.325     337.463    -144.205
  H     -231.863     338.293    -143.725
  H     -233.418     338.878    -143.183

 3  4  5  6  7  8  9  10  11  12  13  24  27  28  29  30  32 0
 6-311+G(2d,p)
 ****
 34  35 0
 6-311+G(2d,p)
 ****
 1  2  14  15  16  17  18  19  20  21  22  23  25  26 0
 3-21G
 ****
 31  33  36  37  38  39  40  41  42  43  44  45  46 0
 3-21G
 ****


