%nproc=1
%NoSave
%Mem=1900MB
#P OB98/GEN NMR

erre ene a

0 1
  C     -261.493    -101.190     -58.897
  O     -260.081    -101.159     -58.917
  P     -259.268     -99.790     -58.735
  C     -259.567    -100.017     -56.192
  O     -259.744     -99.183     -57.326
  C     -259.240     -99.194     -54.943
  O     -259.142    -100.078     -53.793
  C     -257.931     -98.398     -55.028
  O     -258.144     -97.195     -54.282
  C     -256.951     -99.303     -54.306
  O     -255.786     -98.614     -53.869
  C     -257.845     -99.868     -53.193
  N     -257.297    -101.091     -52.621
  C     -256.524    -100.953     -51.466
  O     -256.268     -99.832     -51.020
  N     -256.014    -102.079     -50.870
  C     -256.173    -103.231     -51.442
  N     -255.650    -104.313     -50.805
  C     -256.874    -103.406     -52.728
  C     -257.417    -102.308     -53.250
  O     -259.349     -98.845     -59.886
  O     -257.778    -100.276     -58.414
  H     -255.425     -98.108     -54.630
  H     -257.325    -100.571     -59.244
  H     -256.933    -104.379     -53.194
  H     -257.950    -102.337     -54.189
  H     -257.970     -99.133     -52.389
  H     -256.629    -100.108     -54.979
  H     -257.621     -98.172     -56.050
  H     -260.080     -98.514     -54.758
  H     -255.191    -104.150     -49.916
  H     -258.731    -100.692     -56.395
  H     -255.789    -105.261     -51.120
  H     -260.461    -100.628     -56.032
  P     -257.242     -95.893     -54.528
  C     -258.875     -94.861     -56.205
  O     -257.569     -95.367     -56.003
  O     -255.788     -96.066     -54.229
  O     -257.899     -94.773     -53.587
  H     -257.274     -94.033     -53.478
  H     -258.895     -94.286     -57.135
  H     -259.176     -94.211     -55.378
  H     -259.582     -95.691     -56.286
  H     -261.830    -102.196     -59.035
  H     -261.874    -100.575     -59.685
  H     -261.845    -100.822     -57.956

 3  4  5  6  7  8  9  10  11  12  13  23  27  28  29  30  32 0
 6-311+G(2d,p)
 ****
 34  35 0
 6-311+G(2d,p)
 ****
 1  2  14  15  16  17  18  19  20  21  22  24  25  26 0
 3-21G
 ****
 31  33  36  37  38  39  40  41  42  43  44  45  46 0
 3-21G
 ****


