%nproc=1
%NoSave
%Mem=1900MB
#P OB98/GEN NMR

erre ene a

0 1
  C     -893.430    -895.300    -888.690
  O     -892.600    -894.700    -889.650
  H     -893.830    -894.550    -887.990
  H     -892.880    -896.050    -888.100
  H     -894.310    -895.810    -889.160
  P     -892.210    -895.570    -890.910
  C     -894.500    -894.860    -891.950
  O     -893.590    -895.930    -891.720
  C     -895.770    -895.380    -892.640
  O     -895.460    -895.730    -894.030
  C     -896.360    -896.660    -891.980
  O     -897.810    -896.570    -891.990
  C     -895.890    -897.780    -892.880
  O     -896.730    -898.930    -892.820
  C     -895.890    -897.070    -894.240
  N     -895.620    -899.010    -898.900
  C     -896.660    -898.310    -898.270
  N     -897.740    -898.100    -899.020
  N     -896.590    -897.880    -897.050
  C     -895.400    -898.110    -896.470
  C     -894.290    -898.800    -896.940
  C     -894.410    -899.330    -898.290
  O     -893.540    -900.000    -898.920
  N     -893.290    -898.900    -896.010
  C     -893.740    -898.280    -894.970
  N     -895.030    -897.740    -895.170
  O     -891.780    -897.000    -890.290
  O     -891.100    -895.040    -891.760
  H     -897.660    -898.650    -892.880
  H     -890.850    -897.190    -890.450
  H     -895.730    -899.360    -899.860
  H     -893.220    -898.150    -894.000
  H     -896.900    -897.040    -894.680
  H     -894.910    -898.120    -892.580
  H     -897.830    -898.350    -900.000
  H     -896.020    -896.760    -890.910
  H     -898.500    -897.510    -898.600
  H     -896.550    -894.580    -892.670
  H     -894.040    -894.110    -892.590
  H     -894.770    -894.380    -890.970
  P     -898.550    -896.210    -890.620
  C     -898.850    -893.680    -890.820
  O     -898.190    -894.720    -890.130
  O     -897.760    -897.160    -889.490
  O     -900.000    -896.570    -890.610
  H     -898.300    -897.940    -889.290
  H     -898.543    -892.736    -890.420
  H     -899.908    -893.790    -890.703
  H     -898.599    -893.726    -891.859

 6  7  8  9  10  11  12  13  14  15  26  29  33  34 0
 6-311+G(2d,p)
 ****
 36  38  39  40  41 0
 6-311+G(2d,p)
 ****
 1  2  3  4  5  16  17  18  19  20  21  22  23  24  25 0
 3-21G
 ****
 27  28  30  31  32  35  37  42  43  44  45  46  47 0
 3-21G
 ****
 48  49 0
 3-21G
 ****


