%nproc=1
%NoSave
%Mem=1900MB
#P OB98/GEN NMR

erre ene a

0 1
  C       61.379     124.902      32.960
  O       61.854     126.182      32.579
  P       61.280     126.833      31.233
  C       59.040     127.948      30.538
  O       59.703     127.061      31.429
  C       57.528     127.923      30.770
  O       57.000     126.625      30.390
  C       57.126     128.168      32.228
  O       55.880     128.879      32.264
  C       56.868     126.775      32.762
  O       55.998     126.800      33.892
  C       56.282     126.097      31.524
  N       53.940     121.825      32.862
  C       53.422     123.094      32.700
  N       52.121     123.259      33.023
  N       54.116     124.108      32.255
  C       55.406     123.795      31.978
  C       56.029     122.572      32.083
  C       55.252     121.461      32.588
  O       55.658     120.320      32.781
  N       57.336     122.639      31.676
  C       57.521     123.907      31.366
  N       56.388     124.655      31.567
  O       61.358     125.622      30.190
  O       62.042     128.015      30.739
  H       56.086     125.935      34.337
  H       62.100     125.764      29.573
  H       53.367     121.077      33.219
  H       58.450     124.337      31.019
  H       55.222     126.352      31.391
  H       57.811     126.308      33.067
  H       51.552     122.534      33.434
  H       57.871     128.712      32.818
  H       51.730     124.189      32.956
  H       57.061     128.664      30.110
  H       59.249     127.644      29.513
  H       59.425     128.964      30.680
  P       55.631     129.797      33.559
  C       56.559     132.150      34.168
  O       56.782     130.908      33.532
  O       56.049     128.842      34.772
  O       54.235     130.306      33.688
  H       55.586     129.110      35.587
  H       57.276     132.262      34.987
  H       55.545     132.235      34.569
  H       56.719     132.953      33.444
  H       61.851     124.603      33.873
  H       61.608     124.193      32.192
  H       60.319     124.943      33.103

 3  4  5  6  7  8  9  10  11  12  23  26  30  31 0
 6-311+G(2d,p)
 ****
 33  35  36  37  38 0
 6-311+G(2d,p)
 ****
 1  2  13  14  15  16  17  18  19  20  21  22  24  25 0
 3-21G
 ****
 27  28  29  32  34  39  40  41  42  43  44  45  46  47  48  49 0
 3-21G
 ****


