%nproc=1
%NoSave
%Mem=1900MB
#P OB98/GEN NMR

erre ene a

0 1
  C     -109.145    -552.026     200.168
  O     -108.642    -551.022     199.315
  P     -107.555    -549.962     199.822
  C     -106.250    -549.888     197.602
  O     -107.053    -549.155     198.528
  C     -105.432    -548.923     196.734
  O     -106.315    -548.320     195.742
  C     -104.786    -547.780     197.552
  O     -103.381    -547.631     197.352
  C     -105.630    -546.577     197.175
  O     -104.994    -545.333     197.401
  C     -106.012    -546.906     195.726
  N     -107.127    -546.098     195.241
  C     -106.811    -544.945     194.522
  O     -105.671    -544.577     194.264
  N     -107.879    -544.172     194.144
  C     -109.172    -544.357     194.511
  O     -110.062    -543.566     194.217
  C     -109.439    -545.566     195.299
  C     -108.433    -546.388     195.605
  O     -106.459    -550.529     200.659
  O     -108.446    -548.862     200.572
  H     -105.017    -545.156     198.359
  H     -109.113    -548.428     200.017
  H     -107.656    -543.331     193.626
  H     -110.461    -545.739     195.612
  H     -108.595    -547.286     196.193
  H     -105.170    -546.763     195.052
  H     -106.531    -546.589     197.802
  H     -104.876    -547.966     198.627
  H     -104.670    -549.507     196.211
  H     -106.906    -550.475     196.961
  H     -105.597    -550.583     198.148
  P     -102.313    -547.310     198.497
  C     -100.479    -548.918     197.582
  O     -100.847    -547.597     197.914
  O     -102.596    -547.938     199.822
  O     -102.357    -545.711     198.612
  H     -102.124    -545.441     199.524
  H      -99.396    -549.019     197.702
  H     -100.741    -549.115     196.536
  H     -100.978    -549.648     198.224
  H     -109.855    -552.624     199.636
  H     -109.622    -551.572     201.011
  H     -108.339    -552.645     200.505

 3  4  5  6  7  8  9  10  11  12  13  23  28  29  30  31  32 0
 6-311+G(2d,p)
 ****
 33  34 0
 6-311+G(2d,p)
 ****
 1  2  14  15  16  17  18  19  20  21  22  24  25  26  27 0
 3-21G
 ****
 35  36  37  38  39  40  41  42  43  44  45 0
 3-21G
 ****


