%nproc=1
%NoSave
%Mem=1900MB
#P OB98/GEN NMR

erre ene a

0 1
  C        0.890     297.149     642.571
  O        1.334     298.432     642.987
  P        1.205     299.646     641.936
  C        2.637     300.496     639.898
  O        2.551     299.691     641.072
  C        3.998     300.323     639.211
  O        5.037     300.682     640.147
  C        4.325     298.911     638.764
  O        5.373     298.970     637.785
  C        4.866     298.288     640.036
  O        5.623     297.111     639.771
  C        5.650     299.469     640.662
  N        5.638     299.476     642.144
  C        6.833     299.223     642.815
  O        7.912     298.994     642.267
  N        6.765     299.201     644.188
  C        5.625     299.433     644.937
  O        5.601     299.327     646.155
  C        4.438     299.835     644.177
  C        4.492     299.820     642.845
  O        1.273     300.955     642.848
  O       -0.053     299.588     641.122
  H        6.479     297.411     639.362
  H        0.399     301.350     642.943
  H        7.596     298.960     644.684
  H        3.541     300.101     644.722
  H        3.609     300.100     642.266
  H        6.712     299.452     640.348
  H        4.034     298.008     640.688
  H        3.469     298.340     638.361
  H        4.055     301.025     638.365
  H        2.474     301.554     640.169
  H        1.829     300.218     639.203
  P        5.043     298.470     636.297
  C        5.694     296.458     634.821
  O        5.808     297.061     636.104
  O        5.247     299.475     635.206
  O        3.498     298.023     636.391
  H        3.110     297.983     635.503
  H        6.599     295.871     634.645
  H        5.601     297.214     634.017
  H        4.823     295.799     634.803
  H        1.035     296.447     643.365
  H        1.450     296.839     641.713
  H       -0.149     297.195     642.321

 3  4  5  6  7  8  9  10  11  12  13  23  28  29  30  31  32 0
 6-311+G(2d,p)
 ****
 33  34 0
 6-311+G(2d,p)
 ****
 1  2  14  15  16  17  18  19  20  21  22  24  25  26  27 0
 3-21G
 ****
 35  36  37  38  39  40  41  42  43  44  45 0
 3-21G
 ****


