%nproc=1
%NoSave
%Mem=1900MB
#P OB98/GEN NMR

erre ene a

0 1
  C       24.397    -138.247     235.431
  O       23.103    -138.701     235.094
  P       21.977    -138.939     236.214
  C       22.833    -141.346     236.516
  O       21.712    -140.522     236.233
  C       22.624    -142.150     237.803
  O       23.798    -142.969     238.058
  C       22.371    -141.298     239.054
  O       21.474    -142.049     239.877
  C       23.748    -141.233     239.688
  O       23.702    -140.877     241.066
  C       24.271    -142.644     239.385
  N       25.725    -142.722     239.485
  C       26.240    -143.478     240.541
  O       25.482    -143.978     241.379
  N       27.603    -143.606     240.662
  C       28.381    -142.948     239.858
  N       29.721    -143.119     240.019
  C       27.877    -142.041     238.810
  C       26.554    -141.986     238.671
  O       20.753    -138.098     236.072
  O       22.758    -138.705     237.589
  H       24.621    -140.872     241.414
  H       22.884    -137.735     237.755
  H       28.563    -141.470     238.201
  H       26.091    -141.347     237.930
  H       23.836    -143.374     240.079
  H       24.359    -140.483     239.171
  H       21.962    -140.310     238.837
  H       21.781    -142.832     237.639
  H       30.023    -143.763     240.741
  H       23.706    -140.697     236.645
  H       30.407    -142.722     239.399
  H       23.033    -142.010     235.670
  P       19.961    -141.574     240.109
  C       20.054    -140.039     242.154
  O       19.778    -141.344     241.683
  O       18.921    -142.441     239.474
  O       19.916    -140.086     239.514
  H       18.986    -139.816     239.382
  H       19.634    -139.925     243.158
  H       19.615    -139.282     241.499
  H       21.139    -139.890     242.206
  H       24.986    -138.156     234.542
  H       24.859    -138.947     236.095
  H       24.327    -137.293     235.911

 3  4  5  6  7  8  9  10  11  12  13  23  27  28  29  30  32 0
 6-311+G(2d,p)
 ****
 34  35 0
 6-311+G(2d,p)
 ****
 1  2  14  15  16  17  18  19  20  21  22  24  25  26 0
 3-21G
 ****
 31  33  36  37  38  39  40  41  42  43  44  45  46 0
 3-21G
 ****


