%nproc=1
%NoSave
%Mem=1900MB
#P OB98/GEN NMR

erre ene a

0 1
  C      160.800     100.559     -49.393
  O      161.700     100.278     -48.339
  H      160.820     101.633     -49.593
  H      159.786     100.273     -49.102
  H      161.095     100.023     -50.300
  P      161.959      98.729     -48.004
  C      161.748      98.582     -45.390
  O      162.584      98.704     -46.527
  C      162.332      99.355     -44.206
  O      162.041     100.765     -44.383
  C      161.764      98.927     -42.852
  O      162.805      99.016     -41.876
  C      160.712      99.985     -42.563
  O      160.431     100.097     -41.171
  C      161.355     101.227     -43.202
  N      160.373     102.262     -43.520
  C      160.189     103.268     -42.566
  O      160.829     103.249     -41.514
  N      159.260     104.247     -42.805
  C      158.526     104.192     -43.872
  N      157.605     105.178     -44.039
  C      158.653     103.124     -44.883
  C      159.592     102.208     -44.651
  O      163.205      98.394     -48.950
  O      160.773      97.847     -48.210
  H      161.267     100.303     -40.698
  H      163.896      99.077     -48.937
  H      158.011     103.114     -45.752
  H      159.760     101.393     -45.345
  H      162.106     101.661     -42.528
  H      159.777      99.736     -43.076
  H      161.355      97.915     -42.865
  H      163.422      99.251     -44.227
  H      157.536     105.877     -43.310
  H      161.631      97.530     -45.114
  H      156.944     105.205     -44.801
  H      160.760      98.977     -45.652
  P      163.165      97.736     -40.987
  C      162.903      98.356     -38.490
  O      163.791      98.217     -39.592
  O      163.919      96.655     -41.684
  O      161.715      97.200     -40.541
  H      161.729      96.224     -40.593
  H      163.450      98.681     -37.630
  H      162.440      97.413     -38.284
  H      162.150      99.078     -38.727

 6  7  8  9  10  11  12  13  14  15  16  26  30  31  32  33  35 0
 6-311+G(2d,p)
 ****
 37  38 0
 6-311+G(2d,p)
 ****
 1  2  3  4  5  17  18  19  20  21  22  23  24  25 0
 3-21G
 ****
 27  28  29  34  36  39  40  41  42  43  44  45  46 0
 3-21G
 ****


