%nproc=1
%NoSave
%Mem=1900MB
#P OB98/GEN NMR

erre ene a

0 1
  C       26.622     119.482      37.181
  O       27.652     118.929      36.390
  H       26.039     120.172      36.566
  H       27.050     120.038      38.019
  H       25.955     118.701      37.555
  P       28.542     117.745      36.998
  C       29.425     116.923      34.716
  O       29.748     117.498      35.972
  C       30.020     117.749      33.570
  O       29.633     119.146      33.755
  C       31.559     117.713      33.497
  O       31.918     117.874      32.118
  C       31.913     118.946      34.309
  O       33.264     119.309      34.181
  C       30.855     119.915      33.764
  N       30.682     121.146      34.526
  C       31.540     122.205      34.247
  O       32.431     122.179      33.399
  N       31.347     123.338      34.993
  C       30.396     123.515      35.955
  O       30.251     124.564      36.569
  C       29.526     122.358      36.210
  C       29.701     121.247      35.493
  O       27.799     116.518      37.408
  O       29.277     118.431      38.247
  H       28.830     118.168      39.074
  H       33.484     119.972      34.871
  H       31.956     124.117      34.802
  H       28.768     122.460      36.975
  H       29.068     120.380      35.651
  H       31.082     120.168      32.724
  H       31.754     118.751      35.372
  H       31.985     116.781      33.878
  H       29.572     117.418      32.625
  H       28.334     116.895      34.623
  H       29.810     115.898      34.680
  P       32.215     116.642      31.132
  C       31.758     118.351      29.242
  O       32.528     117.235      29.673
  O       31.153     115.592      31.137
  O       33.619     116.044      31.614
  H       33.671     115.100      31.374
  H       32.069     118.641      28.260
  H       31.904     119.168      29.918
  H       30.722     118.084      29.224

 6  7  8  9  10  11  12  13  14  15  16  27  31  32  33  34  35 0
 6-311+G(2d,p)
 ****
 36  37 0
 6-311+G(2d,p)
 ****
 1  2  3  4  5  17  18  19  20  21  22  23  24  25 0
 3-21G
 ****
 26  28  29  30  38  39  40  41  42  43  44  45 0
 3-21G
 ****


