%nproc=1
%NoSave
%Mem=1900MB
#P OB98/GEN NMR

erre ene a

0 1
  C      422.251     330.469     595.033
  O      423.574     330.511     594.481
  P      424.599     329.270     594.547
  C      426.854     330.531     594.501
  O      425.955     329.704     593.788
  C      427.588     331.479     593.542
  O      426.642     332.304     592.833
  C      428.542     332.471     594.206
  O      429.728     331.867     594.672
  C      428.753     333.477     593.073
  O      429.774     333.052     592.168
  C      427.380     333.465     592.354
  N      426.605     334.686     592.549
  C      427.283     335.891     592.298
  O      428.482     335.890     591.997
  N      426.584     337.058     592.406
  C      425.356     337.038     592.840
  N      424.704     338.243     592.902
  C      424.659     335.819     593.247
  C      425.344     334.681     593.076
  O      424.024     327.979     594.053
  O      425.038     329.156     596.089
  H      425.295     328.238     596.280
  H      429.445     332.229     591.744
  H      423.653     335.847     593.642
  H      424.897     333.720     593.348
  H      427.520     333.288     591.279
  H      429.037     334.466     593.446
  H      428.022     332.965     595.041
  H      428.135     330.871     592.810
  H      425.209     339.067     592.603
  H      427.594     329.897     595.003
  H      423.744     338.337     593.200
  H      426.309     331.091     595.261
  P      430.522     332.619     595.840
  C      432.684     333.171     594.503
  O      432.083     332.445     595.565
  O      430.251     331.706     597.139
  O      430.087     334.034     596.074
  H      430.121     332.280     597.917
  H      433.740     333.345     594.735
  H      432.188     334.143     594.357
  H      432.615     332.589     593.586
  H      421.765     331.407     594.866
  H      422.309     330.280     596.084
  H      421.692     329.689     594.560

 3  4  5  6  7  8  9  10  11  12  13  24  27  28  29  30  32 0
 6-311+G(2d,p)
 ****
 34  35 0
 6-311+G(2d,p)
 ****
 1  2  14  15  16  17  18  19  20  21  22  23  25  26 0
 3-21G
 ****
 31  33  36  37  38  39  40  41  42  43  44  45  46 0
 3-21G
 ****


