%nproc=1
%NoSave
%Mem=1900MB
#P OB98/GEN NMR

erre ene a

0 1
  C     -340.229    -889.816     646.414
  O     -341.086    -889.505     645.342
  H     -339.877    -888.880     646.853
  H     -339.363    -890.378     646.061
  H     -340.764    -890.385     647.179
  P     -341.726    -890.695     644.468
  C     -341.721    -889.528     642.179
  O     -342.520    -889.971     643.271
  C     -342.493    -888.559     641.281
  O     -343.719    -889.195     640.822
  C     -342.886    -887.253     641.989
  O     -342.569    -886.132     641.152
  C     -344.399    -887.366     642.135
  O     -345.045    -886.099     642.243
  C     -344.750    -888.189     640.890
  N     -346.079    -888.772     640.976
  C     -347.021    -888.294     640.048
  O     -346.700    -887.442     639.225
  N     -348.315    -888.751     640.121
  C     -348.649    -889.589     641.062
  N     -349.945    -889.987     641.086
  C     -347.698    -890.083     642.068
  C     -346.444    -889.649     641.973
  O     -342.526    -891.679     645.259
  O     -340.477    -891.367     643.710
  H     -344.829    -885.573     641.443
  H     -340.724    -892.284     643.456
  H     -348.024    -890.774     642.841
  H     -345.668    -889.965     642.672
  H     -344.689    -887.576     639.984
  H     -344.626    -887.940     643.041
  H     -342.393    -887.118     642.955
  H     -341.888    -888.356     640.386
  H     -350.563    -889.610     640.377
  H     -341.399    -890.413     641.606
  H     -350.330    -890.607     641.790
  H     -340.842    -889.020     642.589
  P     -341.166    -885.409     641.430
  C     -342.219    -883.059     641.134
  O     -341.206    -883.959     640.744
  O     -340.145    -886.249     640.531
  O     -340.772    -885.424     642.869
  H     -339.546    -886.774     641.103
  H     -342.111    -882.143     640.591
  H     -342.138    -882.863     642.183
  H     -343.177    -883.487     640.924

 6  7  8  9  10  11  12  13  14  15  16  26  30  31  32  33  35 0
 6-311+G(2d,p)
 ****
 37  38 0
 6-311+G(2d,p)
 ****
 1  2  3  4  5  17  18  19  20  21  22  23  24  25 0
 3-21G
 ****
 27  28  29  34  36  39  40  41  42  43  44  45  46 0
 3-21G
 ****


