%nproc=1
%NoSave
%Mem=1900MB
#P OB98/GEN NMR

erre ene a

0 1
  C     -315.804    -458.918     145.909
  O     -314.846    -459.975     145.941
  P     -313.320    -459.660     145.567
  C     -313.760    -459.459     143.041
  O     -313.280    -458.802     144.207
  C     -312.707    -459.504     141.922
  O     -312.418    -458.169     141.430
  C     -311.366    -460.140     142.338
  O     -310.874    -460.852     141.193
  C     -310.514    -458.920     142.621
  O     -309.127    -459.223     142.623
  C     -310.988    -457.980     141.517
  N     -310.649    -456.586     141.777
  C     -309.718    -455.989     140.919
  O     -309.155    -456.662     140.060
  N     -309.443    -454.652     141.090
  C     -309.929    -454.015     142.107
  N     -309.646    -452.689     142.227
  C     -310.770    -454.671     143.136
  C     -311.105    -455.931     142.889
  O     -312.393    -460.828     145.601
  O     -312.903    -458.569     146.678
  H     -308.863    -459.521     141.720
  H     -311.961    -458.697     146.913
  H     -311.088    -454.122     144.013
  H     -311.722    -456.492     143.580
  H     -310.563    -458.265     140.546
  H     -310.770    -458.511     143.606
  H     -311.457    -460.827     143.183
  H     -313.139    -460.073     141.083
  H     -309.053    -452.265     141.528
  H     -314.648    -458.937     142.674
  H     -310.026    -452.116     142.968
  H     -314.088    -460.475     143.314
  P     -310.738    -462.450     141.278
  C     -308.168    -462.601     141.675
  O     -309.472    -462.794     142.195
  O     -310.181    -462.806     139.807
  O     -312.000    -463.204     141.539
  H     -310.425    -463.722     139.590
  H     -307.455    -462.602     142.507
  H     -308.086    -461.637     141.156
  H     -307.920    -463.413     140.994
  H     -316.765    -459.299     146.184
  H     -315.851    -458.509     144.921
  H     -315.514    -458.153     146.598

 3  4  5  6  7  8  9  10  11  12  13  23  27  28  29  30  32 0
 6-311+G(2d,p)
 ****
 34  35 0
 6-311+G(2d,p)
 ****
 1  2  14  15  16  17  18  19  20  21  22  24  25  26 0
 3-21G
 ****
 31  33  36  37  38  39  40  41  42  43  44  45  46 0
 3-21G
 ****


