%nproc=1
%NoSave
%Mem=1900MB
#P OB98/GEN NMR

erre ene a

0 1
  C       56.214     -46.515     -24.881
  O       55.809     -47.596     -24.071
  P       54.413     -48.341     -24.313
  C       53.111     -46.725     -22.785
  O       53.258     -47.240     -24.104
  C       52.179     -45.507     -22.791
  O       52.626     -44.583     -23.832
  C       50.710     -45.878     -23.086
  O       49.773     -45.381     -22.131
  C       50.518     -45.380     -24.511
  O       49.166     -45.168     -24.868
  C       51.444     -44.159     -24.540
  N       51.738     -43.712     -25.899
  C       50.846     -42.817     -26.480
  O       49.842     -42.377     -25.925
  N       51.102     -42.472     -27.780
  C       52.070     -43.009     -28.574
  O       52.182     -42.727     -29.760
  C       52.960     -43.979     -27.916
  C       52.775     -44.266     -26.625
  O       54.212     -49.595     -23.531
  O       54.385     -48.552     -25.902
  H       48.726     -44.721     -24.121
  H       54.432     -47.733     -26.424
  H       50.462     -41.825     -28.213
  H       53.731     -44.429     -28.525
  H       53.415     -44.977     -26.114
  H       51.017     -43.321     -23.986
  H       50.910     -46.149     -25.189
  H       50.567     -46.964     -23.058
  H       52.273     -45.010     -21.821
  H       54.092     -46.423     -22.413
  H       52.734     -47.510     -22.120
  P       48.470     -46.164     -21.628
  C       46.840     -44.885     -23.201
  O       47.381     -46.127     -22.801
  O       47.964     -45.760     -20.283
  O       48.938     -47.696     -21.617
  H       48.440     -48.184     -20.933
  H       45.831     -45.051     -23.588
  H       47.456     -44.465     -24.002
  H       46.790     -44.180     -22.367
  H       57.170     -46.163     -24.554
  H       55.498     -45.724     -24.805
  H       56.282     -46.838     -25.899

 3  4  5  6  7  8  9  10  11  12  13  23  28  29  30  31  32 0
 6-311+G(2d,p)
 ****
 33  34 0
 6-311+G(2d,p)
 ****
 1  2  14  15  16  17  18  19  20  21  22  24  25  26  27 0
 3-21G
 ****
 35  36  37  38  39  40  41  42  43  44  45 0
 3-21G
 ****


