%nproc=1
%NoSave
%Mem=1900MB
#P OB98/GEN NMR

erre ene a

0 1
  C     -761.171     227.599     124.781
  O     -760.763     226.413     125.477
  P     -759.310     225.766     125.275
  C     -758.391     226.820     127.436
  O     -758.231     226.678     126.029
  C     -757.245     227.631     128.062
  O     -757.042     228.866     127.337
  C     -757.477     228.030     129.518
  O     -757.205     226.939     130.379
  C     -756.511     229.210     129.656
  O     -755.170     228.745     129.875
  C     -756.628     229.879     128.277
  N     -757.130     234.896     129.115
  C     -756.067     234.073     129.190
  N     -756.012     232.743     128.954
  C     -757.220     232.279     128.585
  C     -758.398     233.000     128.474
  C     -758.333     234.373     128.764
  N     -759.421     235.208     128.705
  N     -759.443     232.175     128.099
  C     -758.895     230.980     127.970
  N     -757.555     230.997     128.256
  O     -758.967     225.454     123.856
  O     -759.337     224.430     126.158
  H     -754.643     229.504     130.176
  H     -758.722     223.769     125.779
  H     -755.126     234.542     129.474
  H     -759.426     230.089     127.671
  H     -755.660     230.250     127.923
  H     -756.775     229.873     130.488
  H     -758.503     228.385     129.652
  H     -756.324     227.044     127.963
  H     -758.411     225.818     127.883
  H     -759.293     236.175     128.955
  H     -760.326     234.815     128.486
  H     -759.348     227.315     127.634
  P     -758.409     226.214     131.157
  C     -757.927     224.020     129.918
  O     -758.901     225.001     130.235
  O     -759.491     227.117     131.648
  O     -757.682     225.470     132.369
  H     -758.293     225.406     133.122
  H     -757.295     224.378     129.117
  H     -758.444     223.110     129.601
  H     -757.315     223.790     130.798
  H     -762.171     227.852     125.064
  H     -761.132     227.425     123.726
  H     -760.514     228.405     125.034

 3  4  5  6  7  8  9  10  11  12  22  25  29  30  31  32 0
 6-311+G(2d,p)
 ****
 33  36  37 0
 6-311+G(2d,p)
 ****
 1  2  13  14  15  16  17  18  19  20  21  23  24  26 0
 3-21G
 ****
 27  28  34  35  38  39  40  41  42  43  44  45  46  47  48 0
 3-21G
 ****


