%nproc=1
%NoSave
%Mem=1900MB
#P OB98/GEN NMR

erre ene a

0 1
  C      -23.470     -57.369     338.351
  O      -22.264     -57.509     339.112
  P      -21.435     -56.182     339.462
  C      -22.663     -55.561     341.672
  O      -22.371     -55.208     340.327
  C      -22.522     -54.341     342.589
  O      -23.519     -53.339     342.303
  C      -22.686     -54.664     344.066
  O      -21.485     -55.177     344.625
  C      -22.989     -53.288     344.637
  O      -21.765     -52.543     344.792
  C      -23.854     -52.663     343.536
  N      -28.517     -52.123     341.485
  C      -27.282     -51.873     340.997
  N      -26.089     -52.025     341.610
  C      -26.253     -52.501     342.853
  C      -27.446     -52.804     343.488
  C      -28.623     -52.596     342.750
  N      -29.878     -52.854     343.253
  N      -27.219     -53.260     344.768
  C      -25.907     -53.251     344.899
  N      -25.281     -52.793     343.772
  O      -21.335     -55.435     338.050
  O      -20.084     -56.447     340.039
  H      -22.015     -51.615     344.954
  H      -20.483     -54.967     337.984
  H      -27.247     -51.501     339.976
  H      -25.371     -53.568     345.784
  H      -23.644     -51.596     343.398
  H      -23.457     -53.335     345.624
  H      -23.541     -55.337     344.229
  H      -21.530     -53.901     342.416
  H      -21.994     -56.358     342.004
  H      -30.674     -52.707     342.654
  H      -29.960     -53.229     344.187
  H      -23.677     -55.971     341.720
  P      -21.587     -56.550     345.449
  C      -20.097     -57.882     343.788
  O      -21.373     -57.718     344.374
  O      -23.143     -56.635     345.816
  O      -20.721     -56.607     346.661
  H      -23.262     -57.112     346.659
  H      -20.045     -58.874     343.334
  H      -19.306     -57.797     344.536
  H      -19.949     -57.129     343.011
  H      -23.909     -58.333     338.198
  H      -23.245     -56.925     337.404
  H      -24.157     -56.745     338.883

 3  4  5  6  7  8  9  10  11  12  22  25  29  30  31  32 0
 6-311+G(2d,p)
 ****
 33  36  37 0
 6-311+G(2d,p)
 ****
 1  2  13  14  15  16  17  18  19  20  21  23  24  26 0
 3-21G
 ****
 27  28  34  35  38  39  40  41  42  43  44  45  46  47  48 0
 3-21G
 ****


