%nproc=1
%NoSave
%Mem=1900MB
#P OB98/GEN NMR

erre ene a

0 1
  C     -202.326    -636.359    -252.084
  O     -201.627    -637.472    -252.602
  H     -203.304    -636.694    -251.726
  H     -202.479    -635.612    -252.870
  H     -201.775    -635.915    -251.251
  P     -200.100    -637.235    -253.027
  C     -199.290    -639.732    -253.134
  O     -199.622    -638.539    -253.834
  C     -199.427    -640.938    -254.061
  O     -200.816    -641.269    -254.287
  C     -198.883    -640.709    -255.463
  O     -197.473    -640.651    -255.491
  C     -199.469    -641.912    -256.189
  O     -198.713    -643.099    -255.920
  C     -200.876    -641.998    -255.544
  N     -201.921    -641.479    -256.418
  C     -202.789    -642.435    -256.966
  O     -202.649    -643.622    -256.694
  N     -203.765    -642.011    -257.829
  C     -203.895    -640.754    -258.098
  N     -204.878    -640.399    -258.968
  C     -203.020    -639.707    -257.521
  C     -202.063    -640.139    -256.703
  O     -199.322    -637.378    -251.634
  O     -199.834    -635.958    -253.759
  H     -199.220    -643.841    -256.309
  H     -199.519    -638.206    -251.165
  H     -203.166    -638.666    -257.772
  H     -201.378    -639.440    -256.238
  H     -201.122    -643.036    -255.298
  H     -199.474    -641.772    -257.274
  H     -199.319    -639.800    -255.895
  H     -198.944    -641.798    -253.578
  H     -205.450    -641.144    -259.358
  H     -199.917    -639.852    -252.247
  H     -205.047    -639.452    -259.280
  H     -198.250    -639.635    -252.794
  P     -196.697    -640.289    -256.851
  C     -194.995    -638.921    -255.486
  O     -195.182    -639.963    -256.431
  O     -197.345    -639.236    -257.684
  O     -196.557    -641.709    -257.583
  H     -196.061    -642.376    -257.078
  H     -193.950    -638.801    -255.290
  H     -195.503    -639.168    -254.577
  H     -195.391    -638.008    -255.879

 6  7  8  9  10  11  12  13  14  15  16  26  30  31  32  33  35 0
 6-311+G(2d,p)
 ****
 37  38 0
 6-311+G(2d,p)
 ****
 1  2  3  4  5  17  18  19  20  21  22  23  24  25 0
 3-21G
 ****
 27  28  29  34  36  39  40  41  42  43  44  45  46 0
 3-21G
 ****


