%nproc=1
%NoSave
%Mem=1900MB
#P OB98/GEN NMR

erre ene a

0 1
  C     -134.586      -3.822      -3.882
  O     -134.203      -5.181      -3.782
  H     -135.331      -3.609      -3.111
  H     -135.029      -3.633      -4.863
  H     -133.723      -3.169      -3.730
  P     -132.949      -5.634      -4.670
  C     -130.538      -4.694      -5.096
  O     -131.824      -4.493      -4.526
  C     -130.055      -3.411      -5.765
  O     -130.933      -3.034      -6.843
  C     -130.058      -2.193      -4.857
  O     -129.024      -2.228      -3.897
  C     -129.899      -1.076      -5.880
  O     -128.524      -0.863      -6.222
  C     -130.687      -1.629      -7.092
  N     -131.911      -0.884      -7.324
  C     -131.779       0.246      -8.141
  O     -130.683       0.535      -8.624
  N     -132.880       1.034      -8.356
  C     -134.005       0.738      -7.785
  N     -135.050       1.579      -8.012
  C     -134.187      -0.442      -6.915
  C     -133.108      -1.203      -6.729
  O     -133.490      -5.427      -6.160
  O     -132.447      -7.009      -4.388
  H     -128.033      -0.822      -5.375
  H     -133.905      -4.562      -6.311
  H     -135.150      -0.653      -6.473
  H     -133.151      -2.088      -6.105
  H     -130.077      -1.576      -8.004
  H     -130.284      -0.126      -5.502
  H     -131.040      -2.081      -4.379
  H     -129.055      -3.597      -6.180
  H     -134.866       2.406      -8.570
  H     -130.563      -5.515      -5.821
  H     -135.948       1.494      -7.560
  H     -129.858      -4.984      -4.290
  P     -129.177      -1.497      -2.482
  C     -130.612      -1.907      -0.381
  O     -130.491      -2.109      -1.785
  O     -129.143      -0.006      -2.524
  O     -128.004      -2.150      -1.608
  H     -128.061      -3.116      -1.504
  H     -131.519      -2.355      -0.033
  H     -130.629      -0.858      -0.172
  H     -129.778      -2.356       0.117

 6  7  8  9  10  11  12  13  14  15  16  26  30  31  32  33  35 0
 6-311+G(2d,p)
 ****
 37  38 0
 6-311+G(2d,p)
 ****
 1  2  3  4  5  17  18  19  20  21  22  23  24  25 0
 3-21G
 ****
 27  28  29  34  36  39  40  41  42  43  44  45  46 0
 3-21G
 ****


