%nproc=1
%NoSave
%Mem=1900MB
#P OB98/GEN NMR

erre ene a

0 1
  C       -4.122      28.521     -57.867
  O       -3.583      27.229     -58.093
  P       -2.054      27.131     -58.572
  C       -1.924      24.590     -57.903
  O       -1.802      25.584     -58.907
  C       -2.043      23.205     -58.544
  O       -3.217      23.150     -59.380
  C       -0.880      22.825     -59.452
  O        0.264      22.432     -58.710
  C       -1.508      21.715     -60.287
  O       -1.506      20.477     -59.555
  C       -2.953      22.227     -60.459
  N       -3.191      22.851     -61.759
  C       -3.895      22.088     -62.687
  O       -4.304      20.953     -62.452
  N       -4.096      22.673     -63.909
  C       -3.619      23.888     -64.307
  O       -3.791      24.345     -65.429
  C       -2.855      24.633     -63.294
  C       -2.680      24.090     -62.088
  O       -1.296      27.378     -57.186
  O       -1.718      28.093     -59.659
  H       -1.836      27.102     -56.424
  H       -1.868      19.799     -60.157
  H       -4.623      22.149     -64.591
  H       -2.453      25.598     -63.576
  H       -2.112      24.621     -61.333
  H       -3.664      21.402     -60.336
  H       -0.974      21.541     -61.227
  H       -0.623      23.670     -60.101
  H       -2.161      22.465     -57.741
  H       -2.816      24.794     -57.305
  H       -1.046      24.635     -57.249
  P        1.500      23.461     -58.697
  C        2.171      23.370     -56.173
  O        2.458      22.994     -57.501
  O        0.795      24.788     -58.145
  O        2.162      23.619     -60.027
  H        0.180      24.612     -57.414
  H        2.695      22.690     -55.495
  H        1.099      23.319     -55.966
  H        2.529      24.388     -55.996
  H       -5.142      28.432     -57.555
  H       -4.074      29.091     -58.772
  H       -3.557      29.015     -57.104

 3  4  5  6  7  8  9  10  11  12  13  24  28  29  30  31  32 0
 6-311+G(2d,p)
 ****
 33  34 0
 6-311+G(2d,p)
 ****
 1  2  14  15  16  17  18  19  20  21  22  23  25  26  27 0
 3-21G
 ****
 35  36  37  38  39  40  41  42  43  44  45 0
 3-21G
 ****


