%nproc=1
%NoSave
%Mem=1900MB
#P OB98/GEN NMR

erre ene a

0 1
  C      466.360     -96.361      -1.788
  O      467.372     -96.288      -0.804
  H      466.265     -95.381      -2.263
  H      465.404     -96.619      -1.326
  H      466.614     -97.099      -2.554
  P      467.831     -97.636      -0.069
  C      470.009     -97.723      -1.443
  O      468.816     -98.403      -1.072
  C      471.195     -98.297      -0.669
  O      471.223     -99.736      -0.806
  C      472.548     -97.813      -1.173
  O      472.814     -96.486      -0.762
  C      473.466     -98.868      -0.581
  O      473.771     -98.579       0.789
  C      472.606    -100.147      -0.690
  N      473.005    -100.981      -1.821
  C      474.181    -101.705      -1.666
  O      474.862    -101.678      -0.642
  N      474.586    -102.427      -2.756
  C      474.017    -102.378      -3.996
  O      474.551    -102.838      -5.000
  C      472.743    -101.645      -4.087
  C      472.309    -100.979      -3.014
  O      466.729     -98.468       0.502
  O      468.822     -97.119       1.079
  H      468.354     -97.123       1.936
  H      474.345     -99.314       1.097
  H      475.463    -102.923      -2.663
  H      472.222    -101.642      -5.037
  H      471.390    -100.407      -3.065
  H      472.684    -100.739       0.229
  H      474.410     -98.931      -1.125
  H      472.583     -97.885      -2.266
  H      471.065     -98.056       0.395
  H      469.897     -96.660      -1.199
  H      470.157     -97.829      -2.521
  P      473.928     -95.612      -1.512
  C      472.211     -93.823      -2.187
  O      473.202     -94.738      -2.645
  O      475.123     -96.377      -1.984
  O      474.350     -94.507      -0.432
  H      475.326     -94.496      -0.360
  H      471.797     -93.298      -3.022
  H      472.657     -93.123      -1.511
  H      471.435     -94.360      -1.683

 6  7  8  9  10  11  12  13  14  15  16  27  31  32  33  34  35 0
 6-311+G(2d,p)
 ****
 36  37 0
 6-311+G(2d,p)
 ****
 1  2  3  4  5  17  18  19  20  21  22  23  24  25 0
 3-21G
 ****
 26  28  29  30  38  39  40  41  42  43  44  45 0
 3-21G
 ****


