%nproc=1
%NoSave
%Mem=1900MB
#P OB98/GEN NMR

erre ene a

0 1
  C       -0.838      46.673      20.716
  O       -1.838      47.667      20.568
  P       -3.296      47.461      21.203
  C       -4.496      47.546      18.931
  O       -4.190      46.754      20.072
  C       -5.185      46.704      17.859
  O       -4.370      45.540      17.585
  C       -6.566      46.209      18.273
  O       -7.418      46.203      17.124
  C       -6.337      44.771      18.704
  O       -7.532      43.987      18.556
  C       -5.177      44.364      17.791
  N       -4.280      39.318      18.073
  C       -5.178      40.031      17.359
  N       -5.378      41.367      17.352
  C       -4.489      41.981      18.150
  C       -3.513      41.387      18.935
  C       -3.424      39.985      18.880
  N       -2.499      39.260      19.600
  N       -2.810      42.341      19.645
  C       -3.339      43.487      19.278
  N       -4.350      43.323      18.368
  O       -3.903      48.683      21.798
  O       -3.102      46.304      22.287
  H       -8.198      44.359      19.169
  H       -3.647      46.484      23.077
  H       -5.827      39.452      16.709
  H       -3.038      44.456      19.646
  H       -5.534      44.022      16.812
  H       -6.046      44.746      19.760
  H       -7.015      46.815      19.068
  H       -5.242      47.291      16.935
  H       -3.560      47.945      18.527
  H       -2.430      38.275      19.404
  H       -1.755      39.765      20.062
  H       -5.130      48.387      19.230
  P       -8.908      46.773      17.350
  C       -9.792      44.341      17.627
  O       -9.659      45.629      18.182
  O       -9.539      47.213      16.070
  O       -8.634      47.949      18.402
  H       -7.813      47.788      18.917
  H      -10.362      43.718      18.321
  H       -8.808      43.887      17.483
  H      -10.325      44.387      16.673
  H        0.058      46.993      20.226
  H       -1.177      45.758      20.277
  H       -0.640      46.518      21.756

 3  4  5  6  7  8  9  10  11  12  22  25  29  30  31  32 0
 6-311+G(2d,p)
 ****
 33  36  37 0
 6-311+G(2d,p)
 ****
 1  2  13  14  15  16  17  18  19  20  21  23  24  26 0
 3-21G
 ****
 27  28  34  35  38  39  40  41  42  43  44  45  46  47  48 0
 3-21G
 ****


