%nproc=1
%NoSave
%Mem=1900MB
#P OB98/GEN NMR

erre ene a

0 1
  C      -72.657     373.568     567.155
  O      -73.223     372.282     567.040
  H      -71.971     373.568     568.009
  H      -73.433     374.314     567.339
  H      -72.095     373.824     566.252
  P      -74.309     372.004     565.889
  C      -73.735     373.564     563.932
  O      -73.538     372.277     564.504
  C      -72.548     373.972     563.062
  O      -71.343     374.012     563.871
  C      -72.281     373.008     561.889
  O      -72.080     373.755     560.688
  C      -70.986     372.321     562.284
  O      -70.262     371.813     561.162
  C      -70.291     373.432     563.077
  N      -69.193     372.927     563.890
  C      -67.954     372.823     563.246
  O      -67.832     373.152     562.070
  N      -66.896     372.293     563.943
  C      -67.073     371.863     565.149
  N      -65.988     371.318     565.771
  C      -68.370     371.924     565.854
  C      -69.378     372.466     565.173
  O      -75.596     372.739     566.052
  O      -74.494     370.410     565.877
  H      -69.961     372.569     560.616
  H      -75.367     370.195     565.472
  H      -68.468     371.541     566.860
  H      -70.370     372.555     565.601
  H      -69.903     374.207     562.400
  H      -71.210     371.476     562.948
  H      -73.089     372.289     561.734
  H      -72.713     374.996     562.703
  H      -65.119     371.287     565.248
  H      -73.885     374.288     564.745
  H      -66.010     370.929     566.703
  H      -74.640     373.532     563.314
  P      -73.373     373.941     559.748
  C      -75.679     374.830     560.546
  O      -74.295     375.092     560.389
  O      -74.201     372.596     559.991
  O      -73.033     374.132     558.302
  H      -74.179     372.041     559.187
  H      -76.156     375.683     560.982
  H      -75.811     373.982     561.185
  H      -76.114     374.627     559.590

 6  7  8  9  10  11  12  13  14  15  16  26  30  31  32  33  35 0
 6-311+G(2d,p)
 ****
 37  38 0
 6-311+G(2d,p)
 ****
 1  2  3  4  5  17  18  19  20  21  22  23  24  25 0
 3-21G
 ****
 27  28  29  34  36  39  40  41  42  43  44  45  46 0
 3-21G
 ****


