%nproc=1
%NoSave
%Mem=1900MB
#P OB98/GEN NMR

erre ene a

0 1
  C      163.472     239.025    -146.368
  O      163.717     239.938    -145.318
  P      163.010     239.732    -143.898
  C      163.726     242.121    -143.277
  O      162.656     241.182    -143.312
  C      163.192     243.520    -142.984
  O      162.484     244.042    -144.131
  C      162.199     243.580    -141.828
  O      162.867     243.495    -140.586
  C      161.511     244.912    -142.097
  O      162.305     245.999    -141.594
  C      161.472     244.945    -143.631
  N      158.596     244.907    -147.844
  C      159.786     245.479    -147.574
  N      160.474     245.478    -146.409
  C      159.790     244.814    -145.462
  C      158.550     244.208    -145.579
  C      157.950     244.250    -146.854
  N      156.763     243.616    -147.155
  N      158.164     243.656    -144.371
  C      159.151     243.933    -143.541
  N      160.179     244.574    -144.172
  O      163.725     238.826    -142.953
  O      161.573     239.136    -144.275
  H      162.444     245.841    -140.640
  H      161.474     238.254    -143.869
  H      160.257     246.002    -148.402
  H      159.171     243.677    -142.492
  H      161.714     245.940    -144.024
  H      160.527     244.980    -141.623
  H      161.464     242.770    -141.930
  H      164.049     244.180    -142.789
  H      164.223     242.110    -144.253
  H      156.500     243.586    -148.131
  H      156.436     242.886    -146.530
  H      164.446     241.821    -142.510
  P      162.050     243.082    -139.272
  C      163.720     244.406    -137.846
  O      162.358     244.199    -138.163
  O      162.217     241.670    -138.818
  O      160.525     243.388    -139.664
  H      159.939     242.756    -139.206
  H      164.070     243.606    -137.183
  H      163.821     245.367    -137.330
  H      164.335     244.424    -138.753
  H      164.026     239.321    -147.234
  H      162.427     239.018    -146.598
  H      163.777     238.045    -146.067

 3  4  5  6  7  8  9  10  11  12  22  25  29  30  31  32 0
 6-311+G(2d,p)
 ****
 33  36  37 0
 6-311+G(2d,p)
 ****
 1  2  13  14  15  16  17  18  19  20  21  23  24  26 0
 3-21G
 ****
 27  28  34  35  38  39  40  41  42  43  44  45  46  47  48 0
 3-21G
 ****


