%nproc=1
%NoSave
%Mem=1900MB
#P OB98/GEN NMR

erre ene a

0 1
  C     -247.809    -657.167     422.218
  O     -247.680    -655.842     422.697
  H     -248.001    -657.134     421.141
  H     -248.640    -657.680     422.705
  H     -246.880    -657.716     422.386
  P     -247.665    -655.611     424.285
  C     -249.527    -654.888     425.922
  O     -249.215    -655.599     424.731
  C     -251.002    -654.483     425.967
  O     -251.314    -653.577     424.891
  C     -251.963    -655.645     425.779
  O     -251.970    -656.583     426.834
  C     -253.259    -654.926     425.420
  O     -253.954    -654.450     426.570
  C     -252.717    -653.732     424.594
  N     -252.948    -653.898     423.162
  C     -253.829    -652.985     422.574
  O     -254.403    -652.089     423.206
  N     -254.044    -653.141     421.239
  C     -253.522    -654.129     420.454
  O     -253.772    -654.231     419.252
  C     -252.634    -655.092     421.136
  C     -252.387    -654.927     422.440
  O     -246.893    -654.415     424.760
  O     -247.132    -657.000     424.874
  H     -254.838    -654.162     426.267
  H     -246.848    -656.904     425.816
  H     -254.664    -652.483     420.787
  H     -252.211    -655.893     420.544
  H     -251.738    -655.624     422.962
  H     -253.205    -652.797     424.909
  H     -253.947    -655.566     424.863
  H     -251.663    -656.205     424.883
  H     -251.182    -653.960     426.913
  H     -248.904    -653.984     425.945
  H     -249.277    -655.510     426.794
  P     -252.420    -658.105     426.669
  C     -254.217    -659.650     427.765
  O     -253.780    -658.329     427.489
  O     -251.349    -659.141     426.790
  O     -252.936    -658.120     425.136
  H     -252.729    -659.009     424.768
  H     -255.134    -659.615     428.316
  H     -253.473    -660.158     428.342
  H     -254.374    -660.173     426.845

 6  7  8  9  10  11  12  13  14  15  16  26  31  32  33  34  35 0
 6-311+G(2d,p)
 ****
 36  37 0
 6-311+G(2d,p)
 ****
 1  2  3  4  5  17  18  19  20  21  22  23  24  25 0
 3-21G
 ****
 27  28  29  30  38  39  40  41  42  43  44  45 0
 3-21G
 ****


