%nproc=1
%NoSave
%Mem=1900MB
#P OB98/GEN NMR

erre ene a

0 1
  C      188.804      80.773    -414.089
  O      189.628      81.908    -413.800
  P      190.379      82.591    -415.051
  C      192.819      82.084    -414.342
  O      191.829      83.081    -414.571
  C      193.683      82.411    -413.115
  O      194.629      83.471    -413.409
  C      192.869      82.852    -411.892
  O      193.550      82.372    -410.732
  C      192.982      84.367    -411.941
  O      192.711      84.939    -410.667
  C      194.428      84.526    -412.451
  N      194.688      85.845    -413.021
  C      195.326      86.780    -412.203
  O      195.589      86.507    -411.029
  N      195.625      88.020    -412.715
  C      195.261      88.321    -413.924
  N      195.581      89.559    -414.379
  C      194.529      87.380    -414.806
  C      194.288      86.182    -414.301
  O      189.567      83.955    -415.270
  O      190.365      81.749    -416.285
  H      192.660      85.916    -410.773
  H      189.319      84.055    -416.206
  H      194.233      87.679    -415.804
  H      193.757      85.427    -414.863
  H      195.144      84.372    -411.626
  H      192.271      84.779    -412.669
  H      191.842      82.486    -411.900
  H      194.263      81.515    -412.861
  H      196.088      90.172    -413.749
  H      193.460      82.000    -415.219
  H      195.347      89.898    -415.296
  H      192.328      81.116    -414.231
  P      192.755      81.424    -409.721
  C      193.239      82.566    -407.466
  O      193.581      81.501    -408.345
  O      193.187      79.964    -410.250
  O      191.275      81.560    -409.631
  H      192.700      79.280    -409.754
  H      193.778      82.430    -406.527
  H      192.163      82.560    -407.261
  H      193.535      83.523    -407.907
  H      188.363      80.412    -413.183
  H      189.401      80.001    -414.527
  H      188.032      81.058    -414.773

 3  4  5  6  7  8  9  10  11  12  13  21  23  27  28  29  30  32 0
 6-311+G(2d,p)
 ****
 34  35 0
 6-311+G(2d,p)
 ****
 1  2  14  15  16  17  18  19  20  22  24  25  26 0
 3-21G
 ****
 31  33  36  37  38  39  40  41  42  43  44  45  46 0
 3-21G
 ****


