%nproc=1
%NoSave
%Mem=1900MB
#P OB98/GEN NMR

erre ene a

0 1
  C      211.594    1014.932     200.308
  O      210.463    1015.738     200.654
  P      209.431    1016.183     199.516
  C      209.644    1018.750     199.681
  O      208.819    1017.623     199.893
  C      209.134    1019.970     200.479
  O      207.733    1020.213     200.178
  C      209.250    1019.766     201.997
  O      209.911    1020.845     202.660
  C      207.829    1019.490     202.437
  O      207.592    1019.800     203.805
  C      207.006    1020.276     201.412
  N      205.651    1019.746     201.279
  C      204.876    1019.721     202.430
  O      205.314    1020.041     203.550
  N      203.595    1019.252     202.287
  C      203.051    1018.740     201.151
  O      201.918    1018.287     201.074
  C      203.928    1018.739     199.960
  C      205.171    1019.233     200.087
  O      208.435    1015.154     199.107
  O      210.404    1016.557     198.280
  H      206.802    1019.280     204.108
  H      209.973    1016.243     197.462
  H      202.999    1019.236     203.112
  H      203.555    1018.324     199.047
  H      205.855    1019.237     199.241
  H      206.917    1021.338     201.694
  H      207.624    1018.420     202.308
  H      209.885    1018.889     202.242
  H      209.720    1020.835     200.165
  H      209.640    1019.003     198.616
  H      210.680    1018.491     199.927
  P      211.438    1021.269     202.436
  C      212.789    1021.288     204.655
  O      211.954    1022.010     203.753
  O      211.734    1021.984     201.155
  O      212.223    1019.868     202.469
  H      212.918    1019.854     201.784
  H      212.738    1021.773     205.618
  H      213.812    1021.317     204.295
  H      212.447    1020.261     204.756
  H      212.171    1014.731     201.186
  H      212.199    1015.453     199.595
  H      211.258    1014.009     199.884

 3  4  5  6  7  8  9  10  11  12  13  23  28  29  30  31  32 0
 6-311+G(2d,p)
 ****
 33  34 0
 6-311+G(2d,p)
 ****
 1  2  14  15  16  17  18  19  20  21  22  24  25  26  27 0
 3-21G
 ****
 35  36  37  38  39  40  41  42  43  44  45 0
 3-21G
 ****


