%nproc=1
%NoSave
%Mem=1900MB
#P OB98/GEN NMR

erre ene a

0 1
  C      362.440    -151.562     479.146
  O      362.257    -150.143     479.164
  P      363.546    -149.229     478.884
  C      364.350    -148.830     481.346
  O      364.541    -149.503     480.113
  C      365.167    -149.506     482.447
  O      364.793    -150.900     482.576
  C      366.667    -149.510     482.190
  O      367.237    -148.228     482.411
  C      367.122    -150.587     483.164
  O      367.226    -150.053     484.493
  C      365.952    -151.598     483.092
  N      366.264    -152.776     482.293
  C      365.847    -153.994     482.824
  O      365.274    -154.095     483.905
  N      366.131    -155.099     482.069
  C      366.801    -155.109     480.880
  O      367.019    -156.135     480.243
  C      367.263    -153.796     480.395
  C      366.977    -152.708     481.113
  O      362.958    -147.771     479.166
  O      364.120    -149.432     477.522
  H      362.301    -147.757     479.881
  H      367.315    -150.820     485.094
  H      365.825    -155.991     482.429
  H      367.819    -153.773     479.469
  H      367.310    -151.731     480.774
  H      365.680    -151.932     484.102
  H      368.099    -151.006     482.903
  H      366.869    -149.831     481.160
  H      364.949    -148.999     483.394
  H      363.291    -148.851     481.624
  H      364.638    -147.781     481.229
  P      367.516    -147.325     481.110
  C      370.109    -147.446     480.808
  O      368.837    -147.915     480.422
  O      368.005    -145.958     481.786
  O      366.329    -147.180     480.215
  H      368.635    -146.097     482.511
  H      370.859    -148.179     480.506
  H      370.174    -147.300     481.888
  H      370.317    -146.502     480.300
  H      361.506    -152.045     479.346
  H      363.153    -151.839     479.895
  H      362.798    -151.863     478.184

 3  4  5  6  7  8  9  10  11  12  13  24  28  29  30  31  32 0
 6-311+G(2d,p)
 ****
 33  34 0
 6-311+G(2d,p)
 ****
 1  2  14  15  16  17  18  19  20  21  22  23  25  26  27 0
 3-21G
 ****
 35  36  37  38  39  40  41  42  43  44  45 0
 3-21G
 ****


