%nproc=1
%NoSave
%Mem=1900MB
#P OB98/GEN NMR

erre ene a

0 1
  C     -654.286     285.693     270.107
  O     -654.075     286.374     271.322
  H     -655.349     285.736     269.851
  H     -654.000     284.640     270.232
  H     -653.706     286.136     269.294
  P     -652.567     286.780     271.691
  C     -652.826     289.292     271.077
  O     -652.598     288.333     272.104
  C     -653.226     290.639     271.692
  O     -654.433     290.438     272.496
  C     -652.152     291.270     272.606
  O     -652.185     292.686     272.436
  C     -652.672     290.942     273.990
  O     -652.168     291.836     274.979
  C     -654.180     291.052     273.774
  N     -658.033     291.699     276.931
  C     -657.640     292.443     275.843
  N     -658.329     293.571     275.575
  N     -656.631     292.106     275.071
  C     -656.036     290.948     275.432
  C     -656.330     290.131     276.493
  C     -657.438     290.503     277.350
  O     -657.829     289.910     278.334
  N     -655.444     289.070     276.553
  C     -654.606     289.269     275.553
  N     -654.920     290.392     274.841
  O     -651.847     286.784     270.255
  O     -651.878     285.876     272.658
  H     -652.291     292.754     274.664
  H     -651.418     285.921     270.100
  H     -658.804     292.000     277.511
  H     -653.764     288.648     275.308
  H     -654.524     292.084     273.727
  H     -652.386     289.921     274.280
  H     -659.133     293.880     276.104
  H     -651.146     290.899     272.427
  H     -658.075     294.105     274.757
  H     -653.496     291.331     270.875
  H     -653.629     288.935     270.429
  H     -651.916     289.393     270.482
  P     -650.794     293.484     272.477
  C     -650.865     293.835     269.898
  O     -650.693     294.421     271.180
  O     -649.715     292.341     272.177
  O     -650.523     294.167     273.780
  H     -648.890     292.521     272.686
  H     -650.769     294.589     269.145
  H     -651.837     293.391     269.836
  H     -650.119     293.083     269.747

 6  7  8  9  10  11  12  13  14  15  26  29  33  34 0
 6-311+G(2d,p)
 ****
 36  38  39  40  41 0
 6-311+G(2d,p)
 ****
 1  2  3  4  5  16  17  18  19  20  21  22  23  24  25 0
 3-21G
 ****
 27  28  30  31  32  35  37  42  43  44  45  46  47 0
 3-21G
 ****
 48  49 0
 3-21G
 ****


