%nproc=1
%NoSave
%Mem=1900MB
#P OB98/GEN NMR

erre ene a

0 1
  C      -35.852    -118.527     -77.620
  O      -37.013    -117.841     -78.037
  H      -36.145    -119.491     -77.192
  H      -35.328    -117.949     -76.855
  H      -35.189    -118.706     -78.471
  P      -36.802    -116.392     -78.694
  C      -37.967    -114.915     -76.909
  O      -36.737    -115.351     -77.469
  C      -37.713    -113.944     -75.753
  O      -36.928    -114.622     -74.732
  C      -36.942    -112.679     -76.164
  O      -37.462    -111.565     -75.431
  C      -35.529    -112.968     -75.688
  O      -34.776    -111.777     -75.483
  C      -35.817    -113.761     -74.416
  N      -31.819    -113.664     -71.359
  C      -32.836    -112.745     -71.537
  N      -32.778    -111.621     -70.789
  N      -33.821    -112.911     -72.379
  C      -33.766    -114.091     -73.044
  C      -32.812    -115.076     -72.966
  C      -31.713    -114.871     -72.046
  O      -30.772    -115.638     -71.861
  N      -33.094    -116.105     -73.831
  C      -34.216    -115.741     -74.426
  N      -34.664    -114.528     -73.979
  O      -38.220    -116.077     -79.369
  O      -35.678    -116.285     -79.669
  H      -34.408    -111.502     -76.350
  H      -38.112    -115.509     -80.155
  H      -31.078    -113.483     -70.705
  H      -34.740    -116.313     -75.183
  H      -36.107    -113.115     -73.577
  H      -35.002    -113.586     -76.424
  H      -32.069    -111.439     -70.096
  H      -36.988    -112.468     -77.236
  H      -33.522    -110.939     -70.893
  H      -38.674    -113.687     -75.294
  H      -38.519    -115.785     -76.536
  H      -38.560    -114.419     -77.684
  P      -38.628    -110.703     -76.116
  C      -36.994    -108.891     -77.005
  O      -37.997    -109.846     -77.320
  O      -38.957    -109.597     -75.005
  O      -39.844    -111.498     -76.464
  H      -39.821    -109.788     -74.597
  H      -36.672    -108.403     -77.901
  H      -36.161    -109.385     -76.550
  H      -37.393    -108.166     -76.327

 6  7  8  9  10  11  12  13  14  15  26  29  33  34 0
 6-311+G(2d,p)
 ****
 36  38  39  40  41 0
 6-311+G(2d,p)
 ****
 1  2  3  4  5  16  17  18  19  20  21  22  23  24  25 0
 3-21G
 ****
 27  28  30  31  32  35  37  42  43  44  45  46  47 0
 3-21G
 ****
 48  49 0
 3-21G
 ****


