%nproc=1
%NoSave
%Mem=1900MB
#P OB98/GEN NMR

erre ene a

0 1
  C        8.627      37.880     -58.513
  O        8.626      36.520     -58.133
  H        8.078      37.982     -59.453
  H        9.652      38.223     -58.669
  H        8.140      38.501     -57.756
  P        9.127      36.127     -56.662
  C       11.419      35.145     -57.322
  O       10.729      36.211     -56.686
  C       12.578      34.653     -56.450
  O       13.517      35.756     -56.261
  C       12.149      34.173     -55.048
  O       13.048      33.125     -54.663
  C       12.384      35.425     -54.226
  O       12.370      35.159     -52.848
  C       13.706      35.896     -54.838
  N       14.062      37.263     -54.480
  C       14.368      37.516     -53.147
  O       14.378      36.654     -52.271
  N       14.660      38.819     -52.841
  C       14.669      39.865     -53.715
  O       14.959      41.010     -53.391
  C       14.307      39.540     -55.105
  C       14.025      38.274     -55.418
  O        8.570      34.861     -56.104
  O        8.716      37.393     -55.773
  H        7.874      37.212     -55.315
  H       12.967      34.410     -52.637
  H       14.886      39.020     -51.879
  H       14.283      40.352     -55.818
  H       13.753      37.998     -56.432
  H       14.525      35.226     -54.555
  H       11.591      36.155     -54.412
  H       11.121      33.802     -55.021
  H       13.118      33.866     -56.989
  H       11.805      35.510     -58.279
  H       10.719      34.324     -57.510
  P       12.736      31.567     -54.891
  C       12.587      31.024     -52.375
  O       11.922      30.997     -53.630
  O       13.946      30.758     -55.229
  O       11.674      31.516     -56.088
  H       11.847      30.727     -56.637
  H       11.943      30.620     -51.622
  H       12.838      32.034     -52.126
  H       13.481      30.438     -52.432

 6  7  8  9  10  11  12  13  14  15  16  27  31  32  33  34  35 0
 6-311+G(2d,p)
 ****
 36  37 0
 6-311+G(2d,p)
 ****
 1  2  3  4  5  17  18  19  20  21  22  23  24  25 0
 3-21G
 ****
 26  28  29  30  38  39  40  41  42  43  44  45 0
 3-21G
 ****


