%nproc=1
%NoSave
%Mem=1900MB
#P OB98/GEN NMR

erre ene a

0 1
  C     -140.056     -12.505      71.195
  O     -140.475     -11.235      71.658
  P     -141.748     -10.522      71.000
  C     -140.595      -8.806      69.420
  O     -141.304      -9.030      70.619
  C     -139.850      -7.465      69.457
  O     -140.840      -6.409      69.537
  C     -138.937      -7.274      70.664
  O     -138.017      -6.218      70.376
  C     -139.916      -6.817      71.724
  O     -139.270      -6.146      72.803
  C     -140.915      -5.957      70.910
  N     -142.291      -6.098      71.420
  C     -143.045      -4.933      71.529
  O     -142.638      -3.836      71.152
  N     -144.250      -5.058      72.165
  C     -144.730      -6.203      72.728
  O     -145.642      -6.233      73.545
  C     -144.009      -7.435      72.372
  C     -142.823      -7.327      71.766
  O     -142.726     -10.320      72.250
  O     -142.401     -11.288      69.902
  H     -139.960      -5.982      73.488
  H     -143.378     -11.046      72.288
  H     -144.729      -4.189      72.371
  H     -144.437      -8.382      72.671
  H     -142.244      -8.217      71.538
  H     -140.649      -4.894      70.946
  H     -140.428      -7.694      72.141
  H     -138.397      -8.175      70.968
  H     -139.290      -7.334      68.525
  H     -141.292      -8.836      68.577
  H     -139.870      -9.610      69.251
  P     -136.490      -6.412      70.826
  C     -136.776      -4.872      72.861
  O     -136.091      -5.091      71.644
  O     -135.537      -6.814      69.751
  O     -136.592      -7.522      71.978
  H     -135.717      -7.932      72.118
  H     -136.123      -4.314      73.538
  H     -137.060      -5.813      73.337
  H     -137.674      -4.279      72.666
  H     -139.196     -12.821      71.748
  H     -139.808     -12.442      70.156
  H     -140.847     -13.213      71.331

 3  4  5  6  7  8  9  10  11  12  13  23  28  29  30  31  32 0
 6-311+G(2d,p)
 ****
 33  34 0
 6-311+G(2d,p)
 ****
 1  2  14  15  16  17  18  19  20  21  22  24  25  26  27 0
 3-21G
 ****
 35  36  37  38  39  40  41  42  43  44  45 0
 3-21G
 ****


