%nproc=1
%NoSave
%Mem=1900MB
#P OB98/GEN NMR

erre ene a

0 1
  C      305.735      53.561     215.069
  O      306.993      53.864     215.644
  P      308.350      53.544     214.863
  C      308.317      55.810     213.540
  O      309.000      54.923     214.397
  C      309.215      57.025     213.260
  O      309.599      57.655     214.499
  C      310.489      56.620     212.522
  O      310.326      56.781     211.121
  C      311.525      57.550     213.123
  O      311.467      58.845     212.494
  C      311.048      57.645     214.591
  N      311.441      56.571     215.521
  C      311.667      56.870     216.863
  O      311.525      57.989     217.345
  N      312.087      55.822     217.642
  C      312.257      54.533     217.224
  O      312.855      53.673     217.857
  C      311.745      54.233     215.885
  C      311.388      55.250     215.102
  O      307.836      52.896     213.494
  O      309.309      52.651     215.581
  H      311.769      58.732     211.573
  H      307.884      51.923     213.535
  H      312.388      56.061     218.582
  H      311.726      53.200     215.561
  H      311.043      55.053     214.086
  H      311.358      58.595     215.044
  H      312.536      57.176     212.953
  H      310.760      55.587     212.770
  H      308.646      57.755     212.670
  H      307.377      56.128     214.001
  H      308.062      55.306     212.602
  P      310.869      55.650     210.130
  C      308.529      54.709     209.667
  O      309.658      55.359     209.117
  O      311.462      54.444     210.785
  O      311.948      56.433     209.238
  H      312.849      56.271     209.588
  H      307.720      54.735     208.936
  H      308.202      55.217     210.582
  H      308.776      53.670     209.890
  H      304.956      53.849     215.743
  H      305.673      52.510     214.881
  H      305.626      54.095     214.148

 3  4  5  6  7  8  9  10  11  12  13  23  28  29  30  31  32 0
 6-311+G(2d,p)
 ****
 33  34 0
 6-311+G(2d,p)
 ****
 1  2  14  15  16  17  18  19  20  21  22  24  25  26  27 0
 3-21G
 ****
 35  36  37  38  39  40  41  42  43  44  45 0
 3-21G
 ****


