%nproc=1
%NoSave
%Mem=1900MB
#P OB98/GEN NMR

erre ene a

0 1
  C     -211.538     375.902      19.996
  O     -211.979     375.665      21.321
  H     -210.997     376.854      19.976
  H     -212.386     375.963      19.307
  H     -210.859     375.107      19.681
  P     -213.036     374.474      21.563
  C     -212.119     373.688      23.844
  O     -213.181     374.356      23.158
  C     -212.161     373.980      25.346
  O     -211.777     375.344      25.610
  C     -213.540     373.826      25.972
  O     -214.043     372.516      25.993
  C     -213.371     374.587      27.281
  O     -212.761     373.788      28.291
  C     -212.411     375.727      26.853
  N     -213.088     377.011      26.735
  C     -213.657     377.514      27.902
  O     -213.619     376.920      28.984
  N     -214.299     378.713      27.786
  C     -214.470     379.421      26.626
  O     -215.079     380.488      26.593
  C     -213.888     378.824      25.424
  C     -213.228     377.664      25.522
  O     -212.714     373.179      20.878
  O     -214.437     375.110      21.119
  H     -213.420     373.116      28.561
  H     -215.119     374.405      20.990
  H     -214.698     379.103      28.623
  H     -214.012     379.353      24.481
  H     -212.789     377.201      24.642
  H     -211.603     375.836      27.590
  H     -214.323     374.943      27.677
  H     -214.249     374.413      25.367
  H     -211.431     373.324      25.841
  H     -211.176     374.051      23.429
  H     -212.191     372.608      23.666
  P     -215.286     372.023      25.117
  C     -214.469     369.537      25.172
  O     -215.524     370.461      25.403
  O     -215.328     372.493      23.700
  O     -216.527     372.706      25.896
  H     -217.194     372.935      25.221
  H     -214.801     368.549      25.414
  H     -213.631     369.792      25.786
  H     -214.181     369.575      24.142

 6  7  8  9  10  11  12  13  14  15  16  26  31  32  33  34  35 0
 6-311+G(2d,p)
 ****
 36  37 0
 6-311+G(2d,p)
 ****
 1  2  3  4  5  17  18  19  20  21  22  23  24  25 0
 3-21G
 ****
 27  28  29  30  38  39  40  41  42  43  44  45 0
 3-21G
 ****


