%nproc=1
%NoSave
%Mem=1900MB
#P OB98/GEN NMR

erre ene a

0 1
  C     -912.192     295.952    -891.950
  O     -913.153     295.545    -892.910
  H     -911.797     295.066    -891.440
  H     -912.654     296.594    -891.200
  H     -911.362     296.483    -892.430
  P     -913.742     296.669    -893.880
  C     -912.368     296.222    -896.030
  O     -912.576     297.065    -894.910
  C     -910.864     295.927    -896.200
  O     -910.389     295.159    -895.050
  C     -910.542     295.101    -897.460
  O     -909.308     295.578    -898.020
  C     -910.340     293.693    -896.930
  O     -909.507     292.896    -897.770
  C     -909.760     293.981    -895.530
  N     -909.978     292.847    -894.620
  C     -908.981     291.874    -894.580
  O     -907.965     291.991    -895.280
  N     -909.158     290.774    -893.780
  C     -910.289     290.615    -893.170
  N     -910.415     289.474    -892.410
  C     -911.409     291.570    -893.240
  C     -911.192     292.651    -893.970
  O     -913.855     297.959    -892.940
  O     -915.055     296.340    -894.530
  H     -909.349     292.038    -897.300
  H     -914.588     298.534    -893.200
  H     -912.340     291.376    -892.710
  H     -911.953     293.418    -894.090
  H     -908.691     294.184    -895.590
  H     -911.307     293.196    -896.850
  H     -911.336     295.154    -898.220
  H     -910.316     296.878    -896.210
  H     -909.639     288.832    -892.390
  H     -912.721     296.723    -896.920
  H     -911.274     289.231    -891.920
  H     -912.926     295.289    -895.900
  P     -909.286     297.115    -898.510
  C     -906.744     297.742    -898.400
  O     -908.040     297.849    -897.780
  O     -910.567     297.754    -897.770
  O     -909.364     297.263    -900.000
  H     -911.271     297.928    -898.440
  H     -906.023     298.271    -897.813
  H     -906.783     298.164    -899.382
  H     -906.464     296.711    -898.466

 6  7  8  9  10  11  12  13  14  15  16  26  30  31  32  33  35 0
 6-311+G(2d,p)
 ****
 37  38 0
 6-311+G(2d,p)
 ****
 1  2  3  4  5  17  18  19  20  21  22  23  24  25 0
 3-21G
 ****
 27  28  29  34  36  39  40  41  42  43  44  45  46 0
 3-21G
 ****


