%nproc=1
%NoSave
%Mem=1900MB
#P OB98/GEN NMR

erre ene a

0 1
  C     -151.333    -469.444    -252.271
  O     -152.642    -469.977    -252.286
  H     -151.290    -468.599    -252.966
  H     -150.614    -470.199    -252.594
  H     -151.080    -469.091    -251.268
  P     -152.909    -471.270    -251.376
  C     -152.762    -473.829    -251.816
  O     -152.321    -472.528    -252.179
  C     -153.393    -474.515    -253.023
  O     -154.672    -473.905    -253.321
  C     -152.578    -474.398    -254.303
  O     -151.488    -475.310    -254.334
  C     -153.636    -474.707    -255.351
  O     -153.800    -476.123    -255.528
  C     -154.905    -474.075    -254.737
  N     -155.267    -472.815    -255.389
  C     -156.631    -472.601    -255.566
  O     -157.494    -473.398    -255.201
  N     -156.969    -471.443    -256.209
  C     -156.097    -470.520    -256.720
  O     -156.468    -469.538    -257.352
  C     -154.670    -470.800    -256.494
  C     -154.323    -471.924    -255.856
  O     -154.497    -471.463    -251.473
  O     -152.439    -471.156    -249.963
  H     -154.921    -471.140    -250.658
  H     -154.066    -476.477    -254.657
  H     -157.957    -471.270    -256.353
  H     -153.952    -470.084    -256.880
  H     -153.272    -472.159    -255.698
  H     -155.760    -474.758    -254.832
  H     -153.374    -474.296    -256.326
  H     -152.235    -473.363    -254.440
  H     -153.571    -475.574    -252.769
  H     -153.508    -473.752    -251.018
  H     -151.904    -474.402    -251.445
  P     -150.109    -474.832    -254.998
  C     -149.462    -475.200    -257.518
  O     -150.388    -474.693    -256.573
  O     -149.230    -476.162    -254.871
  O     -149.519    -473.620    -254.355
  H     -149.750    -476.975    -254.986
  H     -149.823    -475.012    -258.508
  H     -149.347    -476.254    -257.374
  H     -148.517    -474.717    -257.386

 6  7  8  9  10  11  12  13  14  15  16  27  31  32  33  34  35 0
 6-311+G(2d,p)
 ****
 36  37 0
 6-311+G(2d,p)
 ****
 1  2  3  4  5  17  18  19  20  21  22  23  24  25 0
 3-21G
 ****
 26  28  29  30  38  39  40  41  42  43  44  45 0
 3-21G
 ****


