%nproc=1
%NoSave
%Mem=1900MB
#P OB98/GEN NMR

erre ene a

0 1
  C      -58.043      37.313      69.726
  O      -58.529      36.132      69.121
  H      -57.916      38.078      68.954
  H      -57.074      37.127      70.199
  H      -58.755      37.676      70.471
  P      -58.682      34.852      70.080
  C      -56.731      33.559      68.927
  O      -57.207      34.216      70.092
  C      -55.422      32.841      69.239
  O      -54.405      33.787      69.635
  C      -55.518      31.843      70.387
  O      -56.108      30.613      70.002
  C      -54.049      31.681      70.731
  O      -53.412      30.843      69.749
  C      -53.553      33.141      70.620
  N      -53.601      33.863      71.892
  C      -52.457      33.796      72.696
  O      -51.476      33.148      72.335
  N      -52.463      34.439      73.911
  C      -53.512      35.102      74.286
  N      -53.467      35.708      75.503
  C      -54.731      35.212      73.464
  C      -54.708      34.577      72.296
  O      -59.504      33.808      69.187
  O      -59.269      35.108      71.426
  H      -53.776      29.946      69.864
  H      -59.543      32.934      69.646
  H      -55.586      35.767      73.825
  H      -55.570      34.612      71.639
  H      -52.527      33.179      70.236
  H      -53.885      31.217      71.705
  H      -56.035      32.271      71.252
  H      -55.075      32.356      68.316
  H      -52.643      35.562      76.071
  H      -56.574      34.310      68.146
  H      -54.291      36.087      75.954
  H      -57.470      32.831      68.578
  P      -57.274      30.023      70.935
  C      -55.707      28.242      71.992
  O      -56.563      29.355      72.209
  O      -57.797      28.761      70.104
  O      -58.378      30.983      71.250
  H      -58.767      28.672      70.168
  H      -55.310      27.909      72.928
  H      -54.904      28.530      71.347
  H      -56.262      27.448      71.538

 6  7  8  9  10  11  12  13  14  15  16  26  30  31  32  33  35 0
 6-311+G(2d,p)
 ****
 37  38 0
 6-311+G(2d,p)
 ****
 1  2  3  4  5  17  18  19  20  21  22  23  24  25 0
 3-21G
 ****
 27  28  29  34  36  39  40  41  42  43  44  45  46 0
 3-21G
 ****


