%nproc=1
%NoSave
%Mem=1900MB
#P OB98/GEN NMR

erre ene a

0 1
  C      -67.948     -25.784     -48.585
  O      -68.102     -27.184     -48.593
  P      -67.560     -28.130     -49.756
  C      -65.227     -28.571     -50.848
  O      -66.067     -27.679     -50.126
  C      -64.485     -27.838     -51.975
  O      -65.457     -27.409     -52.963
  C      -63.783     -26.572     -51.459
  O      -62.483     -26.368     -51.999
  C      -64.819     -25.484     -51.706
  O      -64.273     -24.175     -51.738
  C      -65.473     -25.967     -52.997
  N      -68.516     -22.077     -54.190
  C      -67.146     -22.185     -54.330
  N      -66.493     -21.049     -54.658
  N      -66.485     -23.294     -54.130
  C      -67.259     -24.316     -53.697
  C      -68.623     -24.328     -53.522
  C      -69.346     -23.106     -53.779
  O      -70.545     -22.934     -53.558
  N      -69.059     -25.520     -53.005
  C      -67.956     -26.219     -52.834
  N      -66.834     -25.517     -53.208
  O      -68.505     -28.422     -50.875
  O      -67.305     -29.512     -48.959
  H      -63.938     -23.974     -50.845
  H      -67.502     -30.241     -49.580
  H      -68.960     -21.171     -54.281
  H      -67.907     -27.218     -52.417
  H      -64.910     -25.646     -53.875
  H      -65.530     -25.511     -50.873
  H      -66.956     -20.152     -54.674
  H      -63.599     -26.648     -50.382
  H      -65.485     -21.042     -54.523
  H      -63.795     -28.533     -52.464
  H      -65.883     -29.342     -51.267
  H      -64.519     -29.062     -50.175
  P      -61.185     -25.774     -51.286
  C      -59.775     -26.406     -49.240
  O      -61.062     -26.420     -49.827
  O      -61.546     -24.249     -50.969
  O      -59.937     -25.849     -52.102
  H      -60.764     -23.687     -51.129
  H      -59.766     -27.102     -48.397
  H      -59.550     -25.402     -48.872
  H      -59.014     -26.713     -49.964
  H      -68.396     -25.381     -47.701
  H      -68.425     -25.368     -49.448
  H      -66.906     -25.540     -48.600

 3  4  5  6  7  8  9  10  11  12  23  26  30  31 0
 6-311+G(2d,p)
 ****
 33  35  36  37  38 0
 6-311+G(2d,p)
 ****
 1  2  13  14  15  16  17  18  19  20  21  22  24  25 0
 3-21G
 ****
 27  28  29  32  34  39  40  41  42  43  44  45  46  47  48  49 0
 3-21G
 ****


