%nproc=1
%NoSave
%Mem=1900MB
#P OB98/GEN NMR

erre ene a

0 1
  C      639.119    -894.370     177.804
  O      639.381    -895.470     178.654
  P      640.002    -895.160     180.113
  C      637.609    -895.440     181.137
  O      638.761    -894.620     181.000
  C      637.586    -896.100     182.511
  O      637.943    -895.150     183.535
  C      636.235    -896.680     182.905
  O      636.039    -897.950     182.319
  C      636.352    -896.720     184.424
  O      637.093    -897.880     184.853
  C      637.142    -895.430     184.711
  N      634.093    -893.380     188.188
  C      634.646    -894.660     188.132
  N      634.368    -895.480     189.159
  N      635.392    -895.070     187.133
  C      635.548    -894.140     186.171
  C      635.038    -892.850     186.103
  C      634.277    -892.380     187.228
  O      633.849    -891.260     187.383
  N      635.442    -892.210     184.966
  C      636.179    -893.100     184.331
  N      636.305    -894.290     185.032
  O      640.866    -893.840     179.841
  O      640.785    -896.270     180.723
  H      636.631    -898.680     184.558
  H      641.807    -894.070     179.734
  H      633.539    -893.100     188.986
  H      636.666    -892.960     183.375
  H      637.835    -895.550     185.554
  H      635.381    -896.780     184.921
  H      633.784    -895.230     189.940
  H      635.435    -895.990     182.626
  H      634.775    -896.400     189.122
  H      638.358    -896.890     182.516
  H      637.609    -896.220     180.350
  H      636.725    -894.810     180.995
  P      635.003    -898.060     181.094
  C      636.820    -899.070     179.516
  O      635.849    -898.050     179.736
  O      634.283    -896.630     181.104
  O      634.022    -899.200     181.214
  H      633.328    -896.760     180.849
  H      636.908    -899.220     178.436
  H      636.519    -900.000     180.002
  H      637.784    -898.750     179.904
  H      638.713    -894.723     176.879
  H      640.029    -893.840     177.615
  H      638.416    -893.715     178.275

 3  4  5  6  7  8  9  10  11  12  23  26  30  31 0
 6-311+G(2d,p)
 ****
 33  35  36  37  38 0
 6-311+G(2d,p)
 ****
 1  2  13  14  15  16  17  18  19  20  21  22  24  25 0
 3-21G
 ****
 27  28  29  32  34  39  40  41  42  43  44  45  46  47  48  49 0
 3-21G
 ****


