%nproc=1
%NoSave
%Mem=1900MB
#P OB98/GEN NMR

erre ene a

0 1
  C      -14.660    -416.047     423.309
  O      -14.775    -416.814     422.125
  H      -13.833    -415.341     423.189
  H      -14.448    -416.698     424.159
  H      -15.581    -415.483     423.484
  P      -15.927    -417.934     422.111
  C      -16.295    -420.182     423.350
  O      -15.387    -419.142     423.021
  C      -15.588    -421.272     424.155
  O      -15.180    -420.769     425.447
  C      -16.434    -422.510     424.414
  O      -16.411    -423.390     423.303
  C      -15.740    -423.093     425.638
  O      -14.564    -423.841     425.273
  C      -15.364    -421.828     426.424
  N      -16.522    -421.894     431.340
  C      -15.396    -422.347     430.683
  N      -14.458    -422.956     431.446
  N      -15.206    -422.226     429.395
  C      -16.241    -421.627     428.758
  C      -17.400    -421.121     429.297
  C      -17.583    -421.236     430.731
  O      -18.528    -420.800     431.378
  N      -18.200    -420.572     428.330
  C      -17.543    -420.777     427.204
  N      -16.355    -421.429     427.410
  O      -15.847    -418.531     420.625
  O      -17.298    -417.445     422.433
  H      -13.947    -423.260     424.793
  H      -16.737    -418.824     420.352
  H      -16.605    -422.004     432.335
  H      -17.881    -420.475     426.223
  H      -14.413    -421.946     426.961
  H      -16.392    -423.781     426.183
  H      -14.689    -423.368     432.341
  H      -17.464    -422.232     424.677
  H      -13.639    -423.311     430.968
  H      -14.672    -421.540     423.608
  H      -16.692    -420.615     422.427
  H      -17.123    -419.763     423.934
  P      -17.537    -424.535     423.231
  C      -18.012    -426.360     425.026
  O      -17.047    -425.711     424.207
  O      -17.339    -425.159     421.772
  O      -18.928    -424.051     423.455
  H      -18.131    -425.671     421.516
  H      -17.532    -427.114     425.614
  H      -18.759    -426.812     424.407
  H      -18.472    -425.642     425.673

 6  7  8  9  10  11  12  13  14  15  26  29  33  34 0
 6-311+G(2d,p)
 ****
 36  38  39  40  41 0
 6-311+G(2d,p)
 ****
 1  2  3  4  5  16  17  18  19  20  21  22  23  24  25 0
 3-21G
 ****
 27  28  30  31  32  35  37  42  43  44  45  46  47 0
 3-21G
 ****
 48  49 0
 3-21G
 ****


