%nproc=1
%NoSave
%Mem=1900MB
#P OB98/GEN NMR

erre ene a

0 1
  C     -155.143     -56.480      78.289
  O     -155.527     -55.120      78.415
  P     -154.759     -54.221      79.503
  C     -156.567     -54.800      81.288
  O     -155.190     -54.776      80.945
  C     -156.783     -55.585      82.585
  O     -158.131     -55.330      83.060
  C     -156.629     -57.104      82.450
  O     -156.113     -57.585      83.697
  C     -158.059     -57.579      82.274
  O     -158.227     -58.954      82.606
  C     -158.794     -56.607      83.192
  N     -163.536     -57.828      84.458
  C     -162.337     -58.235      85.017
  N     -162.424     -59.034      86.102
  N     -161.164     -57.890      84.554
  C     -161.237     -57.076      83.474
  C     -162.358     -56.636      82.810
  C     -163.648     -56.994      83.354
  O     -164.733     -56.586      82.945
  N     -162.030     -55.899      81.704
  C     -160.715     -55.825      81.747
  N     -160.192     -56.484      82.827
  O     -155.512     -52.815      79.397
  O     -153.280     -54.097      79.313
  H     -157.531     -59.461      82.141
  H     -155.049     -52.213      78.785
  H     -164.408     -58.111      84.871
  H     -160.093     -55.308      81.033
  H     -158.750     -56.908      84.246
  H     -158.367     -57.444      81.229
  H     -163.293     -59.315      86.530
  H     -155.977     -57.408      81.625
  H     -161.561     -59.321      86.549
  H     -156.091     -55.197      83.342
  H     -157.123     -55.295      80.486
  H     -156.939     -53.776      81.387
  P     -155.223     -58.918      83.676
  C     -157.222     -60.306      84.563
  O     -156.221     -60.165      83.576
  O     -154.678     -59.006      85.182
  O     -154.091     -58.901      82.702
  H     -153.794     -59.418      85.186
  H     -158.031     -60.920      84.160
  H     -157.632     -59.337      84.864
  H     -156.801     -60.808      85.438
  H     -155.736     -56.949      77.532
  H     -155.294     -56.981      79.222
  H     -154.109     -56.535      78.018

 3  4  5  6  7  8  9  10  11  12  23  26  30  31 0
 6-311+G(2d,p)
 ****
 33  35  36  37  38 0
 6-311+G(2d,p)
 ****
 1  2  13  14  15  16  17  18  19  20  21  22  24  25 0
 3-21G
 ****
 27  28  29  32  34  39  40  41  42  43  44  45  46  47  48  49 0
 3-21G
 ****


