%nproc=1
%NoSave
%Mem=1900MB
#P OB98/GEN NMR

erre ene a

0 1
  C      -61.577      37.062     -44.048
  O      -62.896      37.568     -44.019
  H      -61.581      36.046     -43.645
  H      -60.918      37.682     -43.434
  H      -61.207      37.034     -45.076
  P      -63.082      39.097     -44.477
  C      -62.359      40.310     -46.671
  O      -62.177      39.204     -45.799
  C      -61.003      40.889     -47.059
  O      -60.327      41.421     -45.899
  C      -60.040      39.871     -47.660
  O      -60.316      39.586     -49.021
  C      -58.725      40.608     -47.491
  O      -58.619      41.641     -48.488
  C      -58.900      41.213     -46.080
  N      -58.366      40.359     -45.018
  C      -57.079      40.659     -44.557
  O      -56.442      41.592     -45.043
  N      -56.527      39.871     -43.576
  C      -57.203      38.877     -43.088
  N      -56.602      38.123     -42.128
  C      -58.567      38.537     -43.531
  C      -59.080      39.308     -44.487
  O      -62.227      39.919     -43.402
  O      -64.488      39.567     -44.635
  H      -57.695      41.950     -48.478
  H      -62.176      40.868     -43.671
  H      -59.086      37.692     -43.103
  H      -60.078      39.115     -44.865
  H      -58.417      42.195     -46.013
  H      -57.853      39.960     -47.605
  H      -60.004      38.950     -47.067
  H      -61.178      41.726     -47.747
  H      -55.644      38.342     -41.889
  H      -62.958      41.064     -46.151
  H      -56.974      37.232     -41.824
  H      -62.890      39.992     -47.574
  P      -59.662      38.262     -49.652
  C      -59.948      35.711     -49.253
  O      -60.143      37.025     -48.749
  O      -58.115      38.410     -49.276
  O      -59.868      38.096     -51.125
  H      -57.544      38.099     -50.004
  H      -60.316      34.999     -48.544
  H      -58.904      35.543     -49.418
  H      -60.477      35.601     -50.177

 6  7  8  9  10  11  12  13  14  15  16  26  30  31  32  33  35 0
 6-311+G(2d,p)
 ****
 37  38 0
 6-311+G(2d,p)
 ****
 1  2  3  4  5  17  18  19  20  21  22  23  24  25 0
 3-21G
 ****
 27  28  29  34  36  39  40  41  42  43  44  45  46 0
 3-21G
 ****


