%nproc=1
%NoSave
%Mem=1900MB
#P OB98/GEN NMR

erre ene a

0 1
  C      267.341    -374.817     206.484
  O      266.631    -375.115     207.668
  H      268.261    -374.278     206.727
  H      267.602    -375.752     205.987
  H      266.725    -374.219     205.805
  P      266.001    -373.873     208.465
  C      268.147    -373.565     209.905
  O      267.249    -372.991     208.959
  C      269.281    -372.586     210.226
  O      268.717    -371.406     210.855
  C      270.333    -373.171     211.179
  O      271.630    -372.714     210.774
  C      269.969    -372.554     212.522
  O      271.078    -372.487     213.406
  C      269.419    -371.194     212.095
  N      268.715    -367.282     215.305
  C      269.651    -367.522     214.356
  N      269.766    -368.588     213.541
  C      268.748    -369.446     213.739
  C      267.720    -369.341     214.663
  C      267.735    -368.202     215.488
  N      266.807    -367.970     216.477
  N      266.888    -370.443     214.590
  C      267.404    -371.195     213.637
  N      268.528    -370.635     213.091
  O      265.470    -374.561     209.814
  O      264.923    -373.128     207.756
  H      271.459    -373.385     213.490
  H      264.618    -375.002     209.636
  H      270.417    -366.752     214.249
  H      267.010    -372.147     213.308
  H      270.216    -370.457     211.924
  H      269.184    -373.157     213.001
  H      270.321    -374.257     211.213
  H      269.739    -372.260     209.285
  H      268.564    -374.487     209.484
  H      266.925    -367.155     217.055
  H      266.103    -368.672     216.662
  H      267.599    -373.808     210.823
  P      272.615    -373.817     210.146
  C      274.298    -374.780     211.872
  O      273.003    -374.865     211.298
  O      273.970    -372.999     209.904
  O      272.107    -374.418     208.878
  H      274.293    -373.150     208.993
  H      274.407    -375.538     212.619
  H      274.427    -373.817     212.320
  H      275.036    -374.921     211.110

 6  7  8  9  10  11  12  13  14  15  25  28  32  33  34  35 0
 6-311+G(2d,p)
 ****
 36  39  40 0
 6-311+G(2d,p)
 ****
 1  2  3  4  5  16  17  18  19  20  21  22  23  24 0
 3-21G
 ****
 26  27  29  30  31  37  38  41  42  43  44  45  46  47 0
 3-21G
 ****
 48 0
 3-21G
 ****


