%nproc=1
%NoSave
%Mem=1900MB
#P OB98/GEN NMR

erre ene a

0 1
  C      381.341    -259.563     427.466
  O      380.914    -258.344     428.077
  P      381.868    -257.064     427.920
  C      381.532    -256.136     430.335
  O      381.368    -255.927     428.934
  C      380.422    -255.419     431.107
  O      380.084    -254.166     430.484
  C      379.124    -256.205     431.161
  O      379.200    -257.239     432.126
  C      378.112    -255.117     431.506
  O      377.950    -254.966     432.925
  C      378.738    -253.847     430.883
  N      377.963    -253.329     429.764
  C      376.756    -252.699     430.095
  O      376.392    -252.634     431.269
  N      375.984    -252.191     429.080
  C      376.368    -252.320     427.849
  N      375.560    -251.800     426.887
  C      377.623    -253.003     427.457
  C      378.357    -253.479     428.455
  O      381.469    -256.481     426.485
  O      383.329    -257.384     427.999
  H      378.819    -254.651     433.261
  H      382.244    -256.074     426.052
  H      377.897    -253.090     426.415
  H      379.296    -253.995     428.262
  H      378.810    -253.049     431.636
  H      377.120    -255.354     431.104
  H      378.894    -256.621     430.169
  H      380.785    -255.218     432.126
  H      374.709    -251.344     427.189
  H      382.509    -255.777     430.657
  H      375.759    -251.851     425.896
  H      381.513    -257.212     430.529
  P      378.370    -258.573     431.850
  C      377.858    -259.038     434.329
  O      378.565    -259.464     433.173
  O      379.305    -259.347     430.802
  O      376.973    -258.426     431.354
  H      378.854    -260.150     430.475
  H      377.915    -259.831     435.083
  H      376.812    -258.849     434.092
  H      378.328    -258.135     434.738
  H      380.615    -260.327     427.649
  H      382.282    -259.859     427.880
  H      381.446    -259.416     426.411

 3  4  5  6  7  8  9  10  11  12  13  21  23  27  28  29  30  32 0
 6-311+G(2d,p)
 ****
 34  35 0
 6-311+G(2d,p)
 ****
 1  2  14  15  16  17  18  19  20  22  24  25  26 0
 3-21G
 ****
 31  33  36  37  38  39  40  41  42  43  44  45  46 0
 3-21G
 ****


