%nproc=1
%NoSave
%Mem=1900MB
#P OB98/GEN NMR

erre ene a

0 1
  C     -894.370    -935.239    -599.105
  O     -894.020    -935.773    -600.362
  P     -893.340    -937.214    -600.478
  C     -895.090    -938.112    -602.124
  O     -894.490    -938.274    -600.852
  C     -895.300    -939.462    -602.820
  O     -894.000    -940.088    -603.031
  C     -896.150    -940.462    -602.039
  O     -896.880    -941.229    -603.014
  C     -895.130    -941.354    -601.361
  O     -895.650    -942.617    -600.972
  C     -894.050    -941.415    -602.456
  N     -890.860    -945.323    -601.701
  C     -892.120    -945.270    -602.187
  N     -892.910    -944.190    -602.330
  C     -892.290    -943.079    -601.917
  C     -891.010    -942.980    -601.367
  C     -890.270    -944.165    -601.280
  N     -888.980    -944.232    -600.807
  N     -890.760    -941.669    -601.007
  C     -891.830    -941.003    -601.340
  N     -892.770    -941.793    -601.938
  O     -892.480    -937.603    -599.325
  O     -892.480    -937.130    -601.832
  H     -896.210    -942.959    -601.701
  H     -891.530    -937.053    -601.615
  H     -892.530    -946.219    -602.511
  H     -892.010    -939.954    -601.146
  H     -894.340    -942.116    -603.257
  H     -894.750    -940.848    -600.462
  H     -896.850    -939.998    -601.333
  H     -895.720    -939.270    -603.812
  H     -894.430    -937.481    -602.728
  H     -888.500    -945.116    -600.917
  H     -888.440    -943.370    -600.739
  H     -896.050    -937.598    -602.009
  P     -898.380    -941.719    -602.698
  C     -899.160    -939.333    -603.223
  O     -899.200    -940.424    -602.294
  O     -898.480    -942.869    -601.753
  O     -898.960    -942.098    -604.150
  H     -899.740    -942.655    -604.045
  H     -898.220    -938.775    -603.081
  H     -900.000    -938.678    -603.033
  H     -899.210    -939.688    -604.256
  H     -894.809    -934.272    -599.238
  H     -893.493    -935.152    -598.498
  H     -895.073    -935.887    -598.625

 3  4  5  6  7  8  9  10  11  12  22  25  29  30  31  32 0
 6-311+G(2d,p)
 ****
 33  36  37 0
 6-311+G(2d,p)
 ****
 1  2  13  14  15  16  17  18  19  20  21  23  24  26 0
 3-21G
 ****
 27  28  34  35  38  39  40  41  42  43  44  45  46  47  48 0
 3-21G
 ****


