%nproc=1
%NoSave
%Mem=1900MB
#P OB98/GEN NMR

erre ene a

0 1
  C      152.029      14.736       6.925
  O      151.025      13.836       6.513
  P      150.888      13.416       4.971
  C      148.497      14.369       4.934
  O      149.788      14.397       4.335
  C      147.875      15.761       4.904
  O      148.860      16.781       5.212
  C      147.327      16.169       3.544
  O      146.218      15.451       3.050
  C      147.156      17.667       3.730
  O      145.947      17.972       4.422
  C      148.385      18.011       4.611
  N      149.435      18.683       3.846
  C      149.049      19.827       3.159
  O      147.903      20.276       3.171
  N      150.025      20.437       2.417
  C      151.307      19.995       2.263
  O      152.119      20.566       1.545
  C      151.651      18.772       3.000
  C      150.716      18.178       3.746
  O      150.642      11.965       4.728
  O      152.247      13.962       4.321
  H      145.921      18.940       4.557
  H      152.378      14.925       4.400
  H      149.764      21.261       1.901
  H      152.665      18.402       2.909
  H      150.947      17.273       4.298
  H      148.089      18.671       5.436
  H      147.121      18.195       2.771
  H      148.124      16.029       2.801
  H      147.107      15.812       5.681
  H      148.597      14.044       5.974
  H      147.868      13.639       4.414
  P      146.272      14.547       1.729
  C      145.065      16.400       0.378
  O      146.157      15.509       0.452
  O      145.442      13.305       1.732
  O      147.825      14.134       1.687
  H      147.908      13.251       1.280
  H      145.121      16.942      -0.571
  H      145.106      17.125       1.195
  H      144.120      15.853       0.410
  H      151.958      14.890       7.982
  H      151.900      15.670       6.419
  H      152.990      14.331       6.687

 3  4  5  6  7  8  9  10  11  12  13  23  28  29  30  31  32 0
 6-311+G(2d,p)
 ****
 33  34 0
 6-311+G(2d,p)
 ****
 1  2  14  15  16  17  18  19  20  21  22  24  25  26  27 0
 3-21G
 ****
 35  36  37  38  39  40  41  42  43  44  45 0
 3-21G
 ****


