%nproc=1
%NoSave
%Mem=1900MB
#P OB98/GEN NMR

erre ene a

0 1
  C      533.268     330.911      30.903
  O      533.925     331.625      31.925
  P      535.144     331.042      32.781
  C      533.605     329.914      34.575
  O      534.625     329.753      33.595
  C      533.828     328.953      35.750
  O      532.733     329.113      36.687
  C      533.800     327.483      35.292
  O      534.792     326.650      35.898
  C      532.344     327.079      35.500
  O      532.137     325.684      35.571
  C      531.985     327.877      36.753
  N      527.919     327.821      39.808
  C      529.247     327.629      40.127
  N      529.500     327.176      41.376
  N      530.229     327.812      39.270
  C      529.814     328.152      38.028
  C      528.528     328.377      37.597
  C      527.452     328.195      38.558
  O      526.251     328.257      38.286
  N      528.470     328.629      36.258
  C      529.730     328.525      35.855
  N      530.575     328.203      36.897
  O      535.987     332.039      33.503
  O      536.055     330.372      31.630
  H      531.186     325.526      35.624
  H      536.984     330.472      31.905
  H      527.200     327.575      40.487
  H      530.073     328.646      34.841
  H      532.268     327.353      37.662
  H      531.780     327.445      34.631
  H      528.761     326.889      41.996
  H      534.037     327.407      34.215
  H      530.439     326.788      41.548
  H      534.759     329.213      36.264
  H      532.657     329.699      34.075
  H      533.566     330.947      34.925
  P      535.507     325.359      35.306
  C      534.472     323.706      36.974
  O      534.586     324.078      35.617
  O      536.776     325.121      36.264
  O      535.944     325.473      33.883
  H      537.539     324.832      35.728
  H      534.063     322.689      37.025
  H      533.790     324.379      37.491
  H      535.449     323.724      37.464
  H      532.492     331.518      30.486
  H      532.843     330.017      31.309
  H      533.971     330.656      30.138

 3  4  5  6  7  8  9  10  11  12  23  26  30  31 0
 6-311+G(2d,p)
 ****
 33  35  36  37  38 0
 6-311+G(2d,p)
 ****
 1  2  13  14  15  16  17  18  19  20  21  22  24  25 0
 3-21G
 ****
 27  28  29  32  34  39  40  41  42  43  44  45  46  47  48  49 0
 3-21G
 ****


