%nproc=1
%NoSave
%Mem=1900MB
#P OB98/GEN NMR

erre ene a

0 1
  C      -28.366      21.405    -669.878
  O      -28.535      21.946    -668.587
  H      -28.780      22.106    -670.612
  H      -28.895      20.455    -669.967
  H      -27.302      21.258    -670.097
  P      -27.876      21.194    -667.340
  C      -27.903      23.215    -665.721
  O      -28.420      21.915    -666.007
  C      -28.778      23.903    -664.677
  O      -30.079      24.212    -665.245
  C      -29.071      23.035    -663.448
  O      -27.948      22.976    -662.592
  C      -30.279      23.762    -662.877
  O      -29.883      24.898    -662.101
  C      -31.026      24.206    -664.152
  N      -32.161      23.343    -664.451
  C      -33.204      23.330    -663.523
  O      -33.194      24.028    -662.500
  N      -34.235      22.453    -663.777
  C      -34.246      21.518    -664.770
  O      -35.060      20.593    -664.797
  C      -33.160      21.593    -665.744
  C      -32.175      22.483    -665.552
  O      -26.384      21.031    -667.401
  O      -28.612      19.777    -667.307
  H      -28.028      19.101    -667.694
  H      -30.665      25.135    -661.557
  H      -34.966      22.427    -663.077
  H      -33.173      20.918    -666.586
  H      -31.338      22.550    -666.245
  H      -31.393      25.235    -664.049
  H      -30.865      23.107    -662.234
  H      -29.369      22.032    -663.762
  H      -28.294      24.853    -664.391
  H      -27.905      23.806    -666.647
  H      -26.870      23.123    -665.365
  P      -27.789      21.748    -661.561
  C      -25.277      21.281    -661.856
  O      -26.288      21.765    -660.980
  O      -28.256      20.423    -662.073
  O      -28.665      22.206    -660.297
  H      -29.267      21.467    -660.039
  H      -24.326      21.338    -661.369
  H      -25.259      21.877    -662.744
  H      -25.485      20.264    -662.113

 6  7  8  9  10  11  12  13  14  15  16  27  31  32  33  34  35 0
 6-311+G(2d,p)
 ****
 36  37 0
 6-311+G(2d,p)
 ****
 1  2  3  4  5  17  18  19  20  21  22  23  24  25 0
 3-21G
 ****
 26  28  29  30  38  39  40  41  42  43  44  45 0
 3-21G
 ****


