%nproc=1
%NoSave
%Mem=1900MB
#P OB98/GEN NMR

erre ene a

0 1
  C       -0.969    -268.802      41.682
  O       -1.121    -267.396      41.664
  H       -0.206    -269.063      42.419
  H       -0.648    -269.157      40.699
  H       -1.911    -269.281      41.965
  P       -2.218    -266.810      40.651
  C       -4.426    -268.126      41.089
  O       -3.635    -266.984      41.382
  C       -5.916    -267.791      41.221
  O       -6.157    -267.248      42.554
  C       -6.408    -266.734      40.217
  O       -7.802    -266.984      39.961
  C       -6.260    -265.452      41.022
  O       -6.957    -264.389      40.414
  C       -6.759    -265.945      42.377
  N       -8.312    -262.053      45.309
  C       -8.933    -262.744      44.328
  N       -8.460    -263.776      43.600
  C       -7.214    -264.100      43.987
  C       -6.456    -263.495      44.979
  C       -7.057    -262.417      45.658
  N       -6.423    -261.708      46.653
  N       -5.220    -264.104      45.087
  C       -5.232    -265.058      44.177
  N       -6.412    -265.085      43.484
  O       -2.256    -267.900      39.480
  O       -1.943    -265.439      40.131
  H       -6.595    -264.198      39.523
  H       -1.672    -267.624      38.749
  H       -9.943    -262.420      44.091
  H       -4.419    -265.743      43.972
  H       -7.844    -266.077      42.388
  H       -5.210    -265.147      41.080
  H       -5.857    -266.741      39.276
  H       -6.499    -268.717      41.147
  H       -4.160    -268.921      41.792
  H       -4.217    -268.463      40.071
  H       -6.914    -260.940      47.078
  H       -5.480    -261.957      46.910
  P       -8.220    -268.288      39.120
  C       -8.072    -270.656      40.228
  O       -8.747    -269.408      40.141
  O       -6.794    -268.879      38.690
  O       -9.073    -268.039      37.920
  H       -6.884    -269.375      37.853
  H       -8.558    -271.274      40.954
  H       -7.056    -270.492      40.521
  H       -8.094    -271.141      39.274

 6  7  8  9  10  11  12  13  14  15  25  28  32  33  34  35 0
 6-311+G(2d,p)
 ****
 36  37  40 0
 6-311+G(2d,p)
 ****
 1  2  3  4  5  16  17  18  19  20  21  22  23  24 0
 3-21G
 ****
 26  27  29  30  31  38  39 41  42  43  44  45  46  47  48 0
 3-21G
 ****


