%nproc=1
%NoSave
%Mem=1900MB
#P OB98/GEN NMR

erre ene a

0 1
  C       31.438      61.544    -252.548
  O       32.546      62.335    -252.161
  H       30.618      62.207    -252.839
  H       31.097      60.917    -251.719
  H       31.702      60.915    -253.402
  P       33.826      61.593    -251.542
  C       34.184      61.770    -248.985
  O       33.415      61.207    -250.042
  C       33.797      63.233    -248.778
  O       32.364      63.366    -248.722
  C       34.320      63.812    -247.471
  O       35.702      64.096    -247.562
  C       33.413      65.015    -247.309
  O       33.850      66.112    -248.122
  C       32.064      64.455    -247.816
  N       31.194      64.010    -246.732
  C       30.369      64.991    -246.165
  O       30.397      66.146    -246.584
  N       29.552      64.631    -245.122
  C       29.543      63.408    -244.695
  N       28.711      63.120    -243.658
  C       30.386      62.343    -245.272
  C       31.181      62.711    -246.275
  O       35.140      62.304    -251.659
  O       33.840      60.178    -252.291
  H       33.410      66.905    -247.755
  H       34.364      60.232    -253.111
  H       30.341      61.336    -244.888
  H       31.831      61.990    -246.758
  H       31.526      65.213    -248.398
  H       33.385      65.360    -246.275
  H       34.119      63.121    -246.645
  H       34.157      63.809    -249.639
  H       28.158      63.885    -243.285
  H       35.237      61.695    -249.274
  H       28.555      62.190    -243.301
  H       34.037      61.206    -248.057
  P       36.565      64.380    -246.240
  C       37.547      66.765    -246.300
  O       36.420      65.958    -245.968
  O       37.962      63.861    -246.267
  O       35.669      63.737    -245.078
  H       35.717      62.748    -245.090
  H       37.331      67.789    -246.076
  H       37.762      66.666    -247.344
  H       38.394      66.446    -245.730

 6  7  8  9  10  11  12  13  14  15  16  26  30  31  32  33  35 0
 6-311+G(2d,p)
 ****
 37  38 0
 6-311+G(2d,p)
 ****
 1  2  3  4  5  17  18  19  20  21  22  23  24  25 0
 3-21G
 ****
 27  28  29  34  36  39  40  41  42  43  44  45  46 0
 3-21G
 ****


