%nproc=1
%NoSave
%Mem=1900MB
#P OB98/GEN NMR

erre ene a

0 1
  C      875.639    -604.129     -97.730
  O      876.293    -605.388     -97.796
  H      876.330    -603.369     -98.147
  H      875.436    -603.863     -96.690
  H      874.720    -604.119     -98.314
  P      875.439    -606.682     -97.395
  C      877.667    -607.940     -96.991
  O      876.406    -607.585     -96.464
  C      878.744    -607.751     -95.931
  O      878.817    -606.342     -95.550
  C      878.495    -608.515     -94.646
  O      878.794    -609.878     -94.798
  C      879.407    -607.766     -93.668
  O      880.744    -608.210     -93.796
  C      879.234    -606.302     -94.174
  N      878.290    -605.524     -93.341
  C      878.780    -605.003     -92.166
  O      879.934    -605.200     -91.773
  N      877.878    -604.281     -91.415
  C      876.565    -604.106     -91.695
  O      875.773    -603.516     -90.947
  C      876.091    -604.704     -92.942
  C      876.969    -605.378     -93.707
  O      874.790    -607.426     -98.509
  O      874.356    -606.135     -96.343
  H      881.263    -607.739     -93.120
  H      873.488    -606.091     -96.773
  H      878.215    -603.882     -90.550
  H      875.033    -604.608     -93.184
  H      876.630    -605.841     -94.629
  H      880.215    -605.789     -94.132
  H      879.098    -607.916     -92.621
  H      877.441    -608.362     -94.334
  H      879.730    -608.013     -96.360
  H      877.885    -607.277     -97.844
  H      877.641    -608.977     -97.325
  P      877.854    -610.994     -94.120
  C      879.650    -612.821     -94.346
  O      878.813    -612.124     -93.456
  O      876.756    -611.529     -94.981
  O      877.240    -610.230     -92.832
  H      876.268    -610.205     -92.924
  H      880.233    -613.535     -93.802
  H      880.302    -612.130     -94.838
  H      879.052    -613.328     -95.074

 6  7  8  9  10  11  12  13  14  15  16  26  31  32  33  34  35 0
 6-311+G(2d,p)
 ****
 36  37 0
 6-311+G(2d,p)
 ****
 1  2  3  4  5  17  18  19  20  21  22  23  24  25 0
 3-21G
 ****
 27  28  29  30  38  39  40  41  42  43  44  45 0
 3-21G
 ****


