%nproc=1
%NoSave
%Mem=1900MB
#P OB98/GEN NMR

erre ene a

0 1
  C       -3.028    -245.443      53.371
  O       -1.720    -245.250      53.876
  P       -0.862    -243.955      53.481
  C        0.625    -245.546      52.104
  O       -0.138    -244.342      52.097
  C        0.407    -246.309      50.803
  O       -0.980    -246.733      50.744
  C        0.638    -245.519      49.513
  O        1.985    -245.460      49.092
  C       -0.165    -246.344      48.519
  O        0.589    -247.511      48.137
  C       -1.388    -246.758      49.354
  N       -5.957    -246.195      47.112
  C       -5.084    -247.224      47.139
  N       -3.871    -247.294      47.743
  C       -3.621    -246.158      48.409
  C       -4.415    -245.019      48.477
  C       -5.640    -245.069      47.789
  N       -6.538    -244.023      47.784
  N       -3.806    -244.040      49.245
  C       -2.666    -244.586      49.635
  N       -2.516    -245.862      49.163
  O        0.034    -243.448      54.561
  O       -1.953    -242.881      53.026
  H        1.407    -247.192      47.707
  H       -1.559    -241.983      53.018
  H       -5.391    -248.121      46.601
  H       -1.941    -244.095      50.244
  H       -1.726    -247.781      49.128
  H       -0.405    -245.799      47.606
  H        0.195    -244.512      49.583
  H        1.034    -247.216      50.820
  H        0.285    -246.169      52.945
  H       -7.448    -244.190      47.376
  H       -6.381    -243.253      48.417
  H        1.684    -245.317      52.256
  P        2.707    -244.018      49.121
  C        2.855    -244.166      46.513
  O        2.511    -243.407      47.653
  O        4.113    -244.037      49.630
  O        1.707    -243.135      50.021
  H        0.839    -242.967      49.625
  H        2.493    -243.646      45.617
  H        2.390    -245.154      46.545
  H        3.939    -244.271      46.442
  H       -3.425    -246.361      53.752
  H       -2.995    -245.484      52.302
  H       -3.652    -244.630      53.677

 3  4  5  6  7  8  9  10  11  12  22  25  29  30  31  32 0
 6-311+G(2d,p)
 ****
 33  36  37 0
 6-311+G(2d,p)
 ****
 1  2  13  14  15  16  17  18  19  20  21  23  24  26 0
 3-21G
 ****
 27  28  34  35  38  39  40  41  42  43  44  45  46  47  48 0
 3-21G
 ****


