%nproc=1
%NoSave
%Mem=1900MB
#P OB98/GEN NMR

erre ene a

0 1
  C     -282.265    -401.588    -915.751
  O     -281.772    -400.875    -916.860
  P     -282.470    -401.000    -918.302
  C     -280.474    -402.133    -919.497
  O     -281.273    -400.950    -919.371
  C     -279.637    -402.073    -920.788
  O     -280.481    -402.020    -921.941
  C     -278.713    -400.867    -920.873
  O     -277.573    -401.038    -920.045
  C     -278.416    -400.835    -922.371
  O     -277.374    -401.758    -922.714
  C     -279.778    -401.295    -922.970
  N     -280.548    -400.185    -923.494
  C     -280.046    -399.566    -924.654
  O     -278.977    -399.960    -925.143
  N     -280.728    -398.507    -925.208
  C     -281.811    -398.083    -924.620
  N     -282.454    -397.024    -925.201
  C     -282.373    -398.678    -923.390
  C     -281.689    -399.708    -922.883
  O     -283.598    -400.055    -918.556
  O     -282.916    -402.549    -918.355
  H     -276.579    -401.458    -922.205
  H     -283.711    -402.711    -917.771
  H     -283.271    -398.295    -922.944
  H     -282.032    -400.228    -921.970
  H     -279.604    -402.022    -923.794
  H     -278.117    -399.832    -922.697
  H     -279.266    -399.961    -920.581
  H     -279.046    -403.007    -920.835
  H     -282.011    -396.624    -926.026
  H     -281.149    -402.983    -919.551
  H     -283.282    -396.590    -924.812
  H     -279.848    -402.231    -918.611
  P     -277.080    -399.833    -919.106
  C     -274.901    -399.450    -920.426
  O     -275.480    -399.798    -919.167
  O     -277.659    -399.820    -917.733
  O     -277.501    -398.518    -919.927
  H     -277.889    -397.886    -919.313
  H     -273.858    -399.156    -920.260
  H     -275.449    -398.645    -920.899
  H     -274.910    -400.343    -921.081
  H     -281.666    -401.370    -914.892
  H     -282.226    -402.638    -915.956
  H     -283.278    -401.299    -915.563

 3  4  5  6  7  8  9  10  11  12  13  23  27  28  29  30  32 0
 6-311+G(2d,p)
 ****
 34  35 0
 6-311+G(2d,p)
 ****
 1  2  14  15  16  17  18  19  20  21  22  24  25  26 0
 3-21G
 ****
 31  33  36  37  38  39  40  41  42  43  44  45  46 0
 3-21G
 ****


