%nproc=1
%NoSave
%Mem=1900MB
#P OB98/GEN NMR

erre ene a

0 1
  C      339.774    -325.522     188.400
  O      338.943    -324.456     188.811
  H      340.683    -325.540     189.008
  H      339.236    -326.461     188.544
  H      340.032    -325.425     187.341
  P      339.478    -322.971     188.522
  C      340.884    -322.663     190.691
  O      340.890    -322.859     189.279
  C      342.295    -322.336     191.189
  O      342.722    -321.082     190.598
  C      342.378    -322.191     192.716
  O      343.615    -322.755     193.168
  C      342.397    -320.683     192.921
  O      343.018    -320.312     194.143
  C      343.136    -320.212     191.670
  N      342.992    -315.453     193.522
  C      343.439    -316.618     194.045
  N      343.445    -317.844     193.485
  C      342.969    -317.790     192.227
  C      342.479    -316.682     191.554
  C      342.486    -315.466     192.263
  N      342.001    -314.286     191.748
  N      342.043    -317.035     190.292
  C      342.271    -318.331     190.204
  N      342.829    -318.833     191.348
  O      338.498    -322.070     189.418
  O      339.475    -322.548     187.093
  H      342.943    -319.340     194.244
  H      337.649    -321.957     188.951
  H      343.837    -316.553     195.060
  H      342.047    -318.949     189.346
  H      344.227    -320.285     191.777
  H      341.367    -320.301     192.930
  H      341.548    -322.662     193.234
  H      342.982    -323.111     190.829
  H      340.524    -323.577     191.173
  H      341.996    -313.476     192.345
  H      341.570    -314.292     190.834
  H      340.206    -321.838     190.938
  P      343.512    -324.105     194.033
  C      342.845    -323.393     196.438
  O      342.414    -323.889     195.182
  O      344.899    -324.131     194.834
  O      343.340    -325.335     193.204
  H      345.324    -325.006     194.738
  H      342.004    -323.304     197.094
  H      343.298    -322.433     196.306
  H      343.558    -324.068     196.862

 6  7  8  9  10  11  12  13  14  15  25  28  32  33  34  35 0
 6-311+G(2d,p)
 ****
 36  39  40 0
 6-311+G(2d,p)
 ****
 1  2  3  4  5  16  17  18  19  20  21  22  23  24 0
 3-21G
 ****
 26  27  29  30  31  37  38  41  42  43  44  45  46  47 0
 3-21G
 ****
 48 0
 3-21G
 ****


