%nproc=1
%NoSave
%Mem=1900MB
#P OB98/GEN NMR

erre ene a

0 1
  C       37.957      93.461      20.690
  O       38.533      94.500      21.455
  H       38.094      93.691      19.630
  H       36.887      93.381      20.898
  H       38.453      92.513      20.913
  P       38.389      94.381      23.048
  C       36.233      95.786      22.899
  O       36.816      94.559      23.322
  C       35.377      96.382      24.016
  O       34.189      95.562      24.175
  C       36.087      96.431      25.374
  O       35.681      97.610      26.070
  C       35.539      95.212      26.094
  O       35.642      95.328      27.510
  C       34.111      95.165      25.554
  N       31.915      91.934      28.816
  C       32.227      93.243      28.913
  N       32.792      94.037      27.980
  C       32.983      93.360      26.833
  C       32.715      92.026      26.584
  C       32.162      91.293      27.649
  N       31.873      89.951      27.574
  N       33.095      91.690      25.300
  C       33.573      92.806      24.779
  N       33.543      93.835      25.677
  O       39.277      95.276      23.845
  O       38.603      92.813      23.285
  H       35.154      96.130      27.792
  H       38.083      92.282      22.654
  H       32.001      93.715      29.866
  H       33.963      92.913      23.772
  H       33.439      95.857      26.080
  H       36.097      94.319      25.791
  H       37.173      96.405      25.290
  H       35.037      97.377      23.708
  H       35.613      95.622      22.011
  H       31.476      89.504      28.385
  H       32.044      89.455      26.712
  H       37.045      96.471      22.634
  P       36.639      98.894      26.052
  C       37.423      98.105      28.376
  O       37.805      98.684      27.137
  O       35.952     100.216      26.116
  O       37.429      98.726      24.666
  H       37.498      99.599      24.230
  H       38.281      98.018      29.009
  H       37.007      97.134      28.203
  H       36.692      98.727      28.850

 6  7  8  9  10  11  12  13  14  15  25  28  32  33  34  35 0
 6-311+G(2d,p)
 ****
 36  39  40 0
 6-311+G(2d,p)
 ****
 1  2  3  4  5  16  17  18  19  20  21  22  23  24 0
 3-21G
 ****
 26  27  29  30  31  37  38  41  42  43  44  45  46  47 0
 3-21G
 ****
 48 0
 3-21G
 ****


