%nproc=1
%NoSave
%Mem=1900MB
#P OB98/GEN NMR

erre ene a

0 1
  C     -131.417     522.124     283.384
  O     -130.097     522.045     283.879
  H     -131.454     521.636     282.407
  H     -131.712     523.171     283.263
  H     -132.116     521.617     284.054
  P     -129.806     522.523     285.379
  C     -127.449     523.567     285.230
  O     -128.221     522.431     285.595
  C     -125.976     523.368     285.615
  O     -125.905     523.086     287.045
  C     -125.283     522.200     284.890
  O     -123.897     522.540     284.770
  C     -125.494     521.076     285.890
  O     -124.720     519.940     285.599
  C     -125.191     521.839     287.185
  N     -125.576     521.159     288.417
  C     -124.607     520.408     289.073
  O     -123.442     520.284     288.693
  N     -125.014     519.778     290.219
  C     -126.261     519.838     290.766
  O     -126.562     519.277     291.814
  C     -127.246     520.640     290.025
  C     -126.865     521.255     288.906
  O     -130.626     521.870     286.441
  O     -130.065     524.104     285.328
  H     -130.939     524.307     285.712
  H     -123.769     520.171     285.674
  H     -124.325     519.235     290.710
  H     -128.249     520.698     290.425
  H     -127.565     521.863     288.342
  H     -124.126     522.086     287.235
  H     -126.533     520.743     285.867
  H     -125.696     522.003     283.896
  H     -125.439     524.311     285.451
  H     -127.854     524.437     285.753
  H     -127.538     523.727     284.150
  P     -123.284     523.326     283.511
  C     -121.096     522.150     282.776
  O     -121.685     523.181     283.562
  O     -123.754     524.738     283.389
  O     -123.706     522.464     282.229
  H     -123.751     523.044     281.446
  H     -120.034     522.167     282.903
  H     -121.334     522.307     281.745
  H     -121.477     521.201     283.089

 6  7  8  9  10  11  12  13  14  15  16  27  31  32  33  34  35 0
 6-311+G(2d,p)
 ****
 36  37 0
 6-311+G(2d,p)
 ****
 1  2  3  4  5  17  18  19  20  21  22  23  24  25 0
 3-21G
 ****
 26  28  29  30  38  39  40  41  42  43  44  45 0
 3-21G
 ****


