%nproc=1
%NoSave
%Mem=1900MB
#P OB98/GEN NMR

erre ene a

0 1
  C      308.472     -82.353      64.459
  O      307.219     -82.446      63.812
  H      308.835     -83.361      64.667
  H      308.361     -81.818      65.405
  H      309.195     -81.839      63.821
  P      306.544     -81.071      63.335
  C      308.385     -80.822      61.524
  O      306.992     -80.852      61.805
  C      308.635     -80.373      60.086
  O      310.027     -79.951      59.959
  C      308.386     -81.460      59.030
  O      307.859     -80.827      57.856
  C      309.790     -81.951      58.713
  O      309.872     -82.594      57.443
  C      310.564     -80.638      58.812
  N      314.970     -80.059      56.452
  C      313.694     -79.687      56.074
  N      313.569     -79.065      54.882
  N      312.632     -79.907      56.801
  C      312.907     -80.509      57.984
  C      314.121     -80.932      58.471
  C      315.288     -80.706      57.643
  O      316.438     -81.030      57.916
  N      313.979     -81.524      59.702
  C      312.684     -81.459      59.956
  N      311.994     -80.853      58.942
  O      307.388     -79.972      64.136
  O      305.081     -80.951      63.594
  H      310.803     -82.866      57.305
  H      306.940     -79.746      64.974
  H      315.753     -79.878      55.847
  H      312.199     -81.837      60.845
  H      310.418     -80.000      57.931
  H      310.124     -82.663      59.479
  H      314.348     -78.821      54.290
  H      307.714     -82.260      59.354
  H      312.650     -78.744      54.607
  H      308.020     -79.486      59.887
  H      308.796     -81.828      61.662
  H      308.879     -80.139      62.222
  P      306.803     -81.643      56.972
  C      304.964     -81.732      58.809
  O      305.333     -81.297      57.509
  O      307.013     -83.153      57.468
  O      307.004     -81.513      55.499
  H      306.779     -83.770      56.751
  H      303.960     -81.425      59.017
  H      305.626     -81.300      59.531
  H      305.028     -82.799      58.860

 6  7  8  9  10  11  12  13  14  15  26  29  33  34 0
 6-311+G(2d,p)
 ****
 36  38  39  40  41 0
 6-311+G(2d,p)
 ****
 1  2  3  4  5  16  17  18  19  20  21  22  23  24  25 0
 3-21G
 ****
 27  28  30  31  32  35  37  42  43  44  45  46  47 0
 3-21G
 ****
 48  49 0
 3-21G
 ****


