%nproc=1
%NoSave
%Mem=1900MB
#P OB98/GEN NMR

erre ene a

0 1
  C      336.967    -443.897    -532.621
  O      337.986    -443.545    -533.543
  P      339.181    -444.599    -533.743
  C      338.023    -445.830    -535.734
  O      338.525    -445.899    -534.409
  C      338.692    -446.903    -536.595
  O      340.122    -446.663    -536.670
  C      338.526    -448.321    -536.073
  O      337.272    -448.850    -536.453
  C      339.714    -449.030    -536.727
  O      339.413    -449.384    -538.089
  C      340.804    -447.949    -536.668
  N      344.320    -450.759    -534.369
  C      343.527    -451.049    -535.462
  N      343.737    -452.241    -536.062
  N      342.615    -450.239    -535.936
  C      342.508    -449.085    -535.231
  C      343.222    -448.688    -534.124
  C      344.263    -449.576    -533.647
  O      345.057    -449.323    -532.743
  N      342.817    -447.466    -533.667
  C      341.879    -447.105    -534.526
  N      341.666    -448.041    -535.503
  O      339.516    -445.055    -532.244
  O      340.377    -444.073    -534.465
  H      339.210    -448.576    -538.595
  H      340.294    -444.566    -531.904
  H      345.016    -451.412    -534.057
  H      341.336    -446.171    -534.490
  H      341.453    -447.969    -537.548
  H      339.974    -449.960    -536.211
  H      344.404    -452.926    -535.736
  H      338.643    -448.346    -534.977
  H      343.162    -452.472    -536.860
  H      338.292    -446.816    -537.612
  H      338.236    -444.847    -536.152
  H      336.940    -445.978    -535.715
  P      336.608    -449.960    -535.504
  C      335.346    -448.375    -533.876
  O      336.411    -449.292    -534.058
  O      337.801    -451.007    -535.274
  O      335.399    -450.622    -536.071
  H      337.436    -451.914    -535.231
  H      335.018    -448.422    -532.832
  H      334.495    -448.603    -534.526
  H      335.698    -447.366    -534.088
  H      336.237    -443.116    -532.581
  H      337.396    -444.034    -531.650
  H      336.500    -444.806    -532.936

 3  4  5  6  7  8  9  10  11  12  23  26  30  31 0
 6-311+G(2d,p)
 ****
 33  35  36  37  38 0
 6-311+G(2d,p)
 ****
 1  2  13  14  15  16  17  18  19  20  21  22  24  25 0
 3-21G
 ****
 27  28  29  32  34  39  40  41  42  43  44  45  46  47  48  49 0
 3-21G
 ****


