%nproc=1
%NoSave
%Mem=1900MB
#P OB98/GEN NMR

erre ene a

0 1
  C      -37.059     -23.811     265.703
  O      -37.002     -22.487     266.204
  H      -37.966     -24.292     266.083
  H      -36.188     -24.379     266.043
  H      -37.096     -23.801     264.610
  P      -35.745     -21.605     265.741
  C      -33.159     -21.891     265.905
  O      -34.440     -22.449     266.146
  C      -32.282     -22.005     267.159
  O      -32.696     -20.983     268.115
  C      -32.402     -23.363     267.880
  O      -31.154     -23.616     268.550
  C      -33.481     -23.068     268.909
  O      -33.522     -24.072     269.902
  C      -33.044     -21.666     269.340
  N      -34.094     -19.019     273.588
  C      -32.951     -19.574     273.134
  N      -32.743     -20.253     271.986
  C      -33.875     -20.320     271.263
  C      -35.114     -19.792     271.591
  C      -35.208     -19.118     272.821
  N      -36.375     -18.555     273.289
  N      -36.038     -20.060     270.594
  C      -35.366     -20.735     269.685
  N      -34.060     -20.922     270.047
  O      -35.751     -20.387     266.782
  O      -35.776     -21.133     264.326
  H      -33.475     -24.965     269.497
  H      -36.217     -19.622     266.394
  H      -32.079     -19.461     273.784
  H      -35.773     -21.124     268.754
  H      -32.149     -21.692     269.972
  H      -34.469     -23.042     268.445
  H      -32.629     -24.192     267.207
  H      -31.242     -21.784     266.889
  H      -33.285     -20.837     265.634
  H      -32.679     -22.421     265.076
  H      -36.359     -18.104     274.191
  H      -37.214     -18.637     272.740
  P      -30.354     -24.976     268.225
  C      -30.863     -27.545     268.293
  O      -31.353     -26.216     268.419
  O      -29.401     -25.118     269.510
  O      -29.552     -24.973     266.965
  H      -28.593     -25.608     269.261
  H      -31.663     -28.237     268.453
  H      -30.096     -27.713     269.020
  H      -30.461     -27.685     267.311

 6  7  8  9  10  11  12  13  14  15  25  28  32  33  34  35 0
 6-311+G(2d,p)
 ****
 36  37  40 0
 6-311+G(2d,p)
 ****
 1  2  3  4  5  16  17  18  19  20  21  22  23  24 0
 3-21G
 ****
 26  27  29  30  31  38  39 41  42  43  44  45  46  47  48 0
 3-21G
 ****


