%nproc=1
%NoSave
%Mem=1900MB
#P OB98/GEN NMR

erre ene a

0 1
  C      309.313     117.327      79.183
  O      308.916     116.756      80.413
  H      309.951     118.196      79.360
  H      309.879     116.584      78.616
  H      308.435     117.620      78.603
  P      308.099     117.703      81.419
  C      309.097     117.492      83.805
  O      308.148     117.001      82.866
  C      309.119     116.593      85.039
  O      307.791     116.582      85.619
  C      309.533     115.138      84.764
  O      310.676     114.792      85.556
  C      308.351     114.311      85.245
  O      308.737     113.121      85.933
  C      307.596     115.270      86.160
  N      303.937     113.301      89.110
  C      305.132     113.856      89.416
  N      306.013     114.458      88.596
  C      305.545     114.480      87.335
  C      304.339     113.980      86.875
  C      303.518     113.347      87.824
  N      302.331     112.734      87.502
  N      304.212     114.183      85.512
  C      305.342     114.758      85.151
  N      306.185     114.939      86.214
  O      306.579     117.503      80.958
  O      308.499     119.139      81.401
  H      309.360     112.650      85.348
  H      306.148     118.375      80.869
  H      305.420     113.801      90.464
  H      305.622     115.018      84.136
  H      307.993     115.258      87.185
  H      307.742     114.025      84.377
  H      309.742     114.949      83.708
  H      309.791     117.045      85.782
  H      308.820     118.507      84.109
  H      301.865     112.206      88.220
  H      302.067     112.670      86.527
  H      310.083     117.527      83.329
  P      311.792     113.877      84.846
  C      312.345     112.471      86.966
  O      312.813     113.388      85.985
  O      312.654     114.944      84.013
  O      311.233     112.806      83.969
  H      313.067     114.510      83.242
  H      313.137     112.244      87.649
  H      312.019     111.572      86.487
  H      311.527     112.907      87.501

 6  7  8  9  10  11  12  13  14  15  25  28  32  33  34  35 0
 6-311+G(2d,p)
 ****
 36  39  40 0
 6-311+G(2d,p)
 ****
 1  2  3  4  5  16  17  18  19  20  21  22  23  24 0
 3-21G
 ****
 26  27  29  30  31  37  38  41  42  43  44  45  46  47  48 0
 3-21G
 ****


