%nproc=1
%NoSave
%Mem=1900MB
#P OB98/GEN NMR

erre ene a

0 1
  C      355.588     123.313    -363.275
  O      354.443     124.069    -363.637
  P      353.001     123.369    -363.534
  C      353.094     122.821    -366.077
  O      352.874     122.341    -364.762
  C      351.999     122.311    -367.024
  O      352.262     122.799    -368.371
  C      351.895     120.778    -367.097
  O      350.514     120.441    -367.290
  C      352.680     120.459    -368.360
  O      352.374     119.185    -368.901
  C      352.258     121.646    -369.243
  N      353.137     121.843    -370.395
  C      352.912     121.046    -371.513
  O      352.022     120.200    -371.583
  N      353.796     121.211    -372.552
  C      354.911     122.002    -372.539
  O      355.726     122.010    -373.461
  C      355.100     122.817    -371.331
  C      354.227     122.703    -370.332
  O      351.994     124.549    -363.924
  O      352.688     122.779    -362.197
  H      352.716     119.164    -369.815
  H      351.597     124.935    -363.112
  H      353.642     120.646    -373.371
  H      355.960     123.468    -371.301
  H      354.351     123.278    -369.419
  H      351.229     121.511    -369.587
  H      353.751     120.495    -368.137
  H      352.294     120.268    -366.215
  H      351.034     122.742    -366.699
  H      354.061     122.463    -366.434
  H      353.119     123.917    -366.067
  P      350.037     118.958    -366.895
  C      350.150     118.216    -369.402
  O      350.539     117.985    -368.063
  O      348.455     119.078    -367.149
  O      350.391     118.569    -365.490
  H      348.244     119.549    -367.973
  H      350.054     119.290    -369.615
  H      349.186     117.726    -369.597
  H      350.907     117.790    -370.073
  H      356.465     123.914    -363.397
  H      355.658     122.449    -363.902
  H      355.505     123.007    -362.253

 3  4  5  6  7  8  9  10  11  12  13  23  28  29  30  31  32 0
 6-311+G(2d,p)
 ****
 33  34 0
 6-311+G(2d,p)
 ****
 1  2  14  15  16  17  18  19  20  21  22  24  25  26 0
 3-21G
 ****
 27  35  36  37  38  39  40  41  42  43  44  45 0
 3-21G
 ****


