%nproc=1
%NoSave
%Mem=1900MB
#P OB98/GEN NMR

erre ene a

0 1
  C     -264.829     124.560    -139.580
  O     -264.318     125.887    -139.734
  P     -263.558     126.504    -138.461
  C     -265.367     128.075    -137.469
  O     -264.148     127.974    -138.195
  C     -266.281     129.159    -138.055
  O     -265.591     130.437    -138.141
  C     -266.798     128.832    -139.462
  O     -268.129     129.371    -139.551
  C     -265.874     129.638    -140.354
  O     -266.435     129.827    -141.654
  C     -265.731     130.899    -139.507
  N     -263.732     133.628    -143.259
  C     -264.850     132.825    -143.243
  N     -265.579     132.778    -144.385
  N     -265.234     132.124    -142.202
  C     -264.432     132.304    -141.123
  C     -263.305     133.081    -141.009
  C     -262.880     133.830    -142.175
  O     -261.898     134.558    -142.238
  N     -262.784     133.027    -139.733
  C     -263.563     132.154    -139.112
  N     -264.605     131.734    -139.891
  O     -262.080     126.777    -139.011
  O     -263.547     125.599    -137.275
  H     -265.740     130.232    -142.217
  H     -261.477     126.070    -138.724
  H     -263.473     134.138    -144.092
  H     -263.427     131.821    -138.098
  H     -266.621     131.545    -139.560
  H     -264.912     129.125    -140.460
  H     -265.370     133.327    -145.206
  H     -266.807     127.766    -139.707
  H     -266.429     132.227    -144.388
  H     -267.131     129.293    -137.369
  H     -265.154     128.315    -136.422
  H     -265.860     127.100    -137.462
  P     -269.337     128.472    -139.014
  C     -269.365     126.799    -140.994
  O     -270.054     127.814    -140.290
  O     -270.403     129.560    -138.510
  O     -268.969     127.526    -137.915
  H     -270.830     129.243    -137.691
  H     -270.098     126.158    -141.497
  H     -268.755     126.188    -140.331
  H     -268.726     127.261    -141.754
  H     -265.311     124.256    -140.485
  H     -265.535     124.541    -138.776
  H     -264.023     123.890    -139.363

 3  4  5  6  7  8  9  10  11  12  23  26  30  31 0
 6-311+G(2d,p)
 ****
 33  35  36  37  38 0
 6-311+G(2d,p)
 ****
 1  2  13  14  15  16  17  18  19  20  21  22  24  25 0
 3-21G
 ****
 27  28  29  32  34  39  40  41  42  43  44  45  46  47  48  49 0
 3-21G
 ****


