%nproc=1
%NoSave
%Mem=1900MB
#P OB98/GEN NMR

erre ene a

0 1
  C     -187.774     133.048     -60.507
  O     -186.476     133.473     -60.872
  P     -186.025     133.464     -62.408
  C     -188.056     134.947     -62.934
  O     -187.306     133.797     -63.311
  C     -187.865     136.067     -63.953
  O     -186.523     136.600     -63.885
  C     -188.043     135.628     -65.397
  O     -189.401     135.396     -65.720
  C     -187.395     136.791     -66.137
  O     -188.302     137.898     -66.241
  C     -186.223     137.142     -65.195
  N     -184.946     136.656     -65.692
  C     -184.190     137.565     -66.439
  O     -184.644     138.676     -66.714
  N     -182.941     137.186     -66.862
  C     -182.537     135.969     -66.668
  N     -181.269     135.668     -67.057
  C     -183.373     134.934     -66.027
  C     -184.545     135.349     -65.547
  O     -185.252     132.262     -62.838
  O     -185.135     134.789     -62.558
  H     -184.291     134.554     -62.989
  H     -189.037     137.603     -66.813
  H     -183.016     133.918     -65.949
  H     -185.214     134.662     -65.041
  H     -186.159     138.228     -65.059
  H     -187.093     136.522     -67.154
  H     -187.465     134.714     -65.578
  H     -188.569     136.873     -63.707
  H     -180.720     136.408     -67.475
  H     -187.713     135.280     -61.950
  H     -180.754     134.881     -66.671
  H     -189.114     134.674     -62.854
  P     -189.697     134.500     -67.017
  C     -189.822     132.314     -65.637
  O     -189.202     133.013     -66.697
  O     -188.629     135.035     -68.085
  O     -191.091     134.609     -67.543
  H     -189.025     135.028     -68.976
  H     -189.639     131.245     -65.768
  H     -190.902     132.487     -65.620
  H     -189.386     132.632     -64.686
  H     -187.889     133.125     -59.446
  H     -187.914     132.031     -60.808
  H     -188.501     133.667     -60.990

 3  4  5  6  7  8  9  10  11  12  13  24  27  28  29  30  32 0
 6-311+G(2d,p)
 ****
 34  35 0
 6-311+G(2d,p)
 ****
 1  2  14  15  16  17  18  19  20  21  22  23  25  26 0
 3-21G
 ****
 31  33  36  37  38  39  40  41  42  43  44  45  46 0
 3-21G
 ****


