%nproc=1
%NoSave
%Mem=1900MB
#P OB98/GEN NMR

erre ene a

0 1
  C       77.046     -50.926      16.102
  O       77.971     -51.104      15.043
  P       77.468     -50.777      13.553
  C       77.052     -53.247      12.851
  O       76.486     -51.974      13.134
  C       75.967     -54.212      12.382
  O       74.952     -54.371      13.394
  C       75.222     -53.757      11.135
  O       75.938     -54.039       9.944
  C       73.968     -54.611      11.216
  O       74.245     -55.939      10.730
  C       73.696     -54.641      12.725
  N       69.067     -52.820      11.807
  C       69.682     -53.953      11.316
  N       68.987     -54.670      10.408
  N       70.871     -54.352      11.685
  C       71.453     -53.531      12.594
  C       70.942     -52.382      13.155
  C       69.630     -51.947      12.728
  O       69.054     -50.925      13.086
  N       71.821     -51.828      14.045
  C       72.862     -52.636      14.028
  N       72.705     -53.660      13.131
  O       78.769     -51.040      12.659
  O       76.926     -49.401      13.367
  H       73.394     -56.421      10.736
  H       78.664     -50.618      11.785
  H       68.151     -52.551      11.487
  H       73.753     -52.510      14.630
  H       73.353     -55.625      13.059
  H       73.145     -54.218      10.612
  H       68.093     -54.383      10.036
  H       74.945     -52.697      11.201
  H       69.438     -55.471       9.984
  H       76.435     -55.192      12.215
  H       77.527     -53.638      13.752
  H       77.819     -53.135      12.077
  P       75.854     -52.943       8.773
  C       73.686     -53.952       7.760
  O       74.302     -52.847       8.392
  O       76.512     -53.697       7.526
  O       76.539     -51.654       9.084
  H       76.893     -53.053       6.901
  H       72.600     -53.827       7.816
  H       73.955     -54.889       8.255
  H       73.982     -53.991       6.709
  H       77.514     -51.179      17.030
  H       76.198     -51.560      15.945
  H       76.728     -49.905      16.130

 3  4  5  6  7  8  9  10  11  12  23  26  30  31 0
 6-311+G(2d,p)
 ****
 33  35  36  37  38 0
 6-311+G(2d,p)
 ****
 1  2  13  14  15  16  17  18  19  20  21  22  24  25 0
 3-21G
 ****
 27  28  29  32  34  39  40  41  42  43  44  45  46  47  48  49 0
 3-21G
 ****


