%nproc=1
%NoSave
%Mem=1900MB
#P OB98/GEN NMR

erre ene a

0 1
  C      427.104    -326.981    -893.630
  O      427.500    -326.723    -894.960
  H      427.861    -326.556    -892.960
  H      427.049    -328.056    -893.460
  H      426.138    -326.515    -893.410
  P      426.478    -327.186    -896.120
  C      425.342    -324.862    -896.050
  O      425.160    -326.272    -895.960
  C      423.992    -324.159    -895.830
  O      423.179    -324.279    -897.050
  C      423.150    -324.727    -894.670
  O      422.451    -323.633    -894.050
  C      422.140    -325.601    -895.370
  O      420.970    -325.849    -894.590
  C      421.882    -324.762    -896.630
  N      417.534    -326.833    -898.070
  C      417.846    -326.064    -896.970
  N      416.822    -325.799    -896.120
  N      419.028    -325.584    -896.730
  C      419.932    -325.903    -897.680
  C      419.768    -326.661    -898.810
  C      418.444    -327.202    -899.060
  O      418.128    -327.915    -900.000
  N      420.942    -326.770    -899.510
  C      421.823    -326.079    -898.810
  N      421.261    -325.532    -897.690
  O      426.001    -328.629    -895.610
  O      427.054    -327.246    -897.500
  H      421.152    -326.635    -894.030
  H      426.559    -329.324    -896.000
  H      416.606    -327.187    -898.210
  H      422.867    -325.946    -899.060
  H      421.241    -323.906    -896.430
  H      422.588    -326.569    -895.630
  H      415.869    -326.090    -896.260
  H      423.735    -325.264    -893.910
  H      417.017    -325.197    -895.320
  H      424.182    -323.089    -895.680
  H      425.714    -324.602    -897.030
  H      426.054    -324.537    -895.290
  P      423.142    -322.914    -892.790
  C      423.646    -320.818    -894.240
  O      424.148    -321.810    -893.350
  O      424.136    -324.049    -892.230
  O      422.178    -322.460    -891.750
  H      424.272    -323.923    -891.270
  H      424.439    -320.158    -894.522
  H      422.874    -320.260    -893.753
  H      423.248    -321.291    -895.113

 6  7  8  9  10  11  12  13  14  15  26  29  33  34 0
 6-311+G(2d,p)
 ****
 36  38  39  40  41 0
 6-311+G(2d,p)
 ****
 1  2  3  4  5  16  17  18  19  20  21  22  23  24  25 0
 3-21G
 ****
 27  28  30  31  32  35  37  42  43  44  45  46  47 0
 3-21G
 ****
 48  49 0
 3-21G
 ****


