%nproc=1
%NoSave
%Mem=1900MB
#P OB98/GEN NMR

erre ene a

0 1
  C        2.874      93.323     -16.058
  O        4.097      92.623     -15.771
  P        4.330      91.759     -14.441
  C        6.047      89.912     -13.851
  O        5.822      91.169     -14.483
  C        6.964      89.025     -14.710
  O        6.275      88.630     -15.925
  C        8.244      89.696     -15.206
  O        9.199      89.851     -14.173
  C        8.660      88.734     -16.313
  O        9.400      87.620     -15.798
  C        7.308      88.250     -16.872
  N        7.020      88.773     -18.197
  C        6.917      87.832     -19.230
  O        7.151      86.646     -19.014
  N        6.563      88.277     -20.487
  C        6.438      89.550     -20.711
  N        6.072      89.926     -21.964
  C        6.664      90.582     -19.677
  C        6.944      90.124     -18.454
  O        3.282      90.717     -14.198
  O        4.374      92.822     -13.243
  H        4.096      92.393     -12.416
  H        8.869      87.235     -15.068
  H        6.582      91.628     -19.915
  H        7.111      90.811     -17.638
  H        7.283      87.154     -16.899
  H        9.298      89.225     -17.062
  H        7.994      90.670     -15.638
  H        7.201      88.121     -14.135
  H        5.910      89.191     -22.647
  H        5.083      89.409     -13.725
  H        5.921      90.886     -22.238
  H        6.488      90.082     -12.860
  P        9.401      91.329     -13.589
  C       10.548      92.391     -11.513
  O       10.275      91.214     -12.254
  O        7.941      91.732     -13.059
  O        9.906      92.326     -14.582
  H        7.762      92.669     -13.254
  H       10.700      92.118     -10.466
  H        9.731      93.115     -11.585
  H       11.469      92.846     -11.894
  H        2.962      93.824     -16.999
  H        2.685      94.042     -15.288
  H        2.065      92.624     -16.100

 3  4  5  6  7  8  9  10  11  12  13  24  27  28  29  30  32 0
 6-311+G(2d,p)
 ****
 34  35 0
 6-311+G(2d,p)
 ****
 1  2  14  15  16  17  18  19  20  21  22  23  25  26 0
 3-21G
 ****
 31  33  36  37  38  39  40  41  42  43  44  45  46 0
 3-21G
 ****


