%nproc=1
%NoSave
%Mem=1900MB
#P OB98/GEN NMR

erre ene a

0 1
  C      707.703    -187.224     119.287
  O      706.613    -187.196     120.207
  P      705.273    -188.049     120.060
  C      705.393    -190.025     121.770
  O      705.601    -189.563     120.447
  C      706.564    -190.876     122.307
  O      707.748    -190.050     122.417
  C      706.256    -191.382     123.711
  O      705.477    -192.557     123.890
  C      707.609    -191.426     124.410
  O      708.223    -192.712     124.333
  C      708.432    -190.395     123.637
  N      710.857    -188.313     127.634
  C      710.798    -189.634     127.244
  N      711.419    -190.531     128.035
  N      710.169    -190.049     126.174
  C      709.515    -189.061     125.513
  C      709.487    -187.716     125.815
  C      710.231    -187.265     126.971
  O      710.330    -186.106     127.353
  N      708.701    -187.023     124.931
  C      708.241    -187.945     124.114
  N      708.714    -189.201     124.421
  O      704.502    -187.818     118.802
  O      704.363    -187.530     121.287
  H      707.622    -193.361     124.744
  H      703.437    -187.575     120.984
  H      711.375    -188.048     128.455
  H      707.569    -187.761     123.284
  H      709.406    -190.806     123.343
  H      707.495    -191.196     125.477
  H      711.814    -190.294     128.935
  H      705.691    -190.593     124.221
  H      711.193    -191.513     127.876
  H      706.819    -191.676     121.600
  H      704.470    -190.613     121.756
  H      705.215    -189.184     122.439
  P      703.926    -192.611     124.272
  C      702.798    -193.488     122.142
  O      703.081    -192.348     122.934
  O      703.679    -191.264     125.111
  O      703.508    -193.810     125.056
  H      702.842    -191.324     125.610
  H      702.498    -193.165     121.142
  H      701.969    -194.050     122.589
  H      703.675    -194.141     122.062
  H      708.471    -186.560     119.624
  H      707.362    -186.915     118.321
  H      708.093    -188.219     119.226

 3  4  5  6  7  8  9  10  11  12  23  26  30  31 0
 6-311+G(2d,p)
 ****
 33  35  36  37  38 0
 6-311+G(2d,p)
 ****
 1  2  13  14  15  16  17  18  19  20  21  22  24  25 0
 3-21G
 ****
 27  28  29  32  34  39  40  41  42  43  44  45  46  47  48  49 0
 3-21G
 ****


