%nproc=1
%NoSave
%Mem=1900MB
#P OB98/GEN NMR

erre ene a

0 1
  C     -388.837     416.380      78.595
  O     -389.249     415.059      78.884
  H     -389.152     417.031      79.412
  H     -389.310     416.725      77.671
  H     -387.750     416.437      78.500
  P     -388.755     413.870      77.931
  C     -386.718     412.520      78.764
  O     -388.113     412.751      78.884
  C     -386.445     411.116      78.208
  O     -385.009     410.984      77.966
  C     -386.852     409.970      79.154
  O     -387.212     408.852      78.328
  C     -385.542     409.721      79.881
  O     -385.553     408.531      80.627
  C     -384.574     409.815      78.693
  N     -383.163     409.919      79.043
  C     -382.453     408.739      79.231
  O     -382.932     407.611      79.117
  N     -381.131     408.887      79.565
  C     -380.467     410.067      79.709
  O     -379.275     410.138      79.979
  C     -381.272     411.283      79.505
  C     -382.558     411.155      79.181
  O     -387.907     414.275      76.772
  O     -390.119     413.181      77.450
  H     -390.327     413.470      76.542
  H     -384.672     408.401      81.037
  H     -380.602     408.041      79.700
  H     -380.778     412.237      79.624
  H     -383.175     412.034      79.013
  H     -384.715     408.952      78.029
  H     -385.355     410.524      80.601
  H     -387.690     410.227      79.806
  H     -386.941     411.021      77.233
  H     -386.268     412.615      79.759
  H     -386.283     413.277      78.105
  P     -388.717     408.312      78.183
  C     -389.813     409.858      76.424
  O     -389.206     408.601      76.681
  O     -389.650     408.825      79.227
  O     -388.598     406.716      78.248
  H     -389.438     406.340      78.578
  H     -390.088     409.917      75.392
  H     -389.122     410.642      76.654
  H     -390.687     409.963      77.033

 6  7  8  9  10  11  12  13  14  15  16  27  31  32  33  34  35 0
 6-311+G(2d,p)
 ****
 36  37 0
 6-311+G(2d,p)
 ****
 1  2  3  4  5  17  18  19  20  21  22  23  24  25 0
 3-21G
 ****
 26  28  29  30  38  39  40  41  42  43  44  45 0
 3-21G
 ****


