%nproc=1
%NoSave
%Mem=1900MB
#P OB98/GEN NMR

erre ene a

0 1
  C      -38.521     981.736    -226.521
  O      -39.542     982.714    -226.679
  P      -39.517     983.980    -225.697
  C      -40.339     984.463    -223.295
  O      -40.173     983.485    -224.309
  C      -41.360     984.002    -222.258
  O      -42.685     983.969    -222.899
  C      -41.106     982.608    -221.683
  O      -41.329     982.621    -220.255
  C      -42.202     981.742    -222.306
  O      -42.509     980.604    -221.506
  C      -43.337     982.775    -222.419
  N      -47.347     979.730    -222.922
  C      -46.602     980.048    -221.787
  N      -46.951     979.421    -220.643
  N      -45.609     980.903    -221.788
  C      -45.394     981.478    -223.001
  C      -46.056     981.258    -224.170
  C      -47.114     980.274    -224.183
  O      -47.749     979.888    -225.158
  N      -45.556     982.057    -225.187
  C      -44.589     982.750    -224.616
  N      -44.422     982.403    -223.301
  O      -40.648     984.931    -226.327
  O      -38.209     984.673    -225.586
  H      -43.232     980.137    -221.961
  H      -40.250     985.815    -226.521
  H      -48.088     979.051    -222.883
  H      -43.964     983.497    -225.121
  H      -43.758     982.987    -221.435
  H      -41.867     981.407    -223.301
  H      -47.732     978.767    -220.568
  H      -40.093     982.203    -221.893
  H      -46.448     979.646    -219.799
  H      -41.423     984.745    -221.462
  H      -40.671     985.408    -223.749
  H      -39.369     984.639    -222.795
  P      -40.497     981.556    -219.407
  C      -40.490     978.954    -219.264
  O      -41.035     980.103    -219.844
  O      -41.087     981.729    -217.913
  O      -39.013     981.758    -219.457
  H      -40.432     981.440    -217.253
  H      -39.863     979.178    -218.408
  H      -39.912     978.412    -220.018
  H      -41.308     978.305    -218.928
  H      -38.662     980.954    -227.238
  H      -38.569     981.327    -225.533
  H      -37.565     982.191    -226.673

 3  4  5  6  7  8  9  10  11  12  23  26  30  31  33  0
 6-311+G(2d,p)
 ****
 35  36  37  38 0
 6-311+G(2d,p)
 ****
 1  2  13  14  15  16  17  18  19  20  21  22  24  25  27  28  29 0
 3-21G
 ****
 32  34  39  40  41  42  43  44  45  46  47  48  49 0
 3-21G
 ****


