%nproc=1
%NoSave
%Mem=1900MB
#P OB98/GEN NMR

erre ene a

0 1
  C      216.296     298.889     -36.743
  O      216.652     297.528     -36.886
  H      215.291     299.031     -37.146
  H      216.990     299.534     -37.289
  H      216.288     299.165     -35.682
  P      218.180     297.112     -36.605
  C      217.377     295.414     -34.831
  O      218.199     296.549     -35.098
  C      216.349     295.726     -33.737
  O      215.474     296.792     -34.170
  C      215.422     294.561     -33.413
  O      216.062     293.487     -32.759
  C      214.244     295.258     -32.745
  O      214.427     295.467     -31.347
  C      214.218     296.621     -33.479
  N      213.081     296.731     -34.388
  C      212.290     297.865     -34.235
  O      212.504     298.731     -33.378
  N      211.217     297.966     -35.073
  C      210.834     297.032     -35.997
  O      209.833     297.160     -36.693
  C      211.692     295.840     -36.093
  C      212.762     295.745     -35.301
  O      219.203     298.175     -36.866
  O      218.380     295.793     -37.487
  H      214.615     294.593     -30.950
  H      219.341     295.590     -37.610
  H      210.638     298.788     -34.985
  H      211.419     295.077     -36.814
  H      213.410     294.874     -35.352
  H      214.150     297.439     -32.753
  H      213.322     294.682     -32.864
  H      215.044     294.158     -34.357
  H      216.884     296.067     -32.845
  H      218.028     294.601     -34.486
  H      216.873     295.097     -35.750
  P      216.066     291.991     -33.327
  C      218.478     291.425     -32.537
  O      217.590     291.579     -33.638
  O      215.012     291.647     -34.333
  O      215.755     291.141     -31.989
  H      215.224     290.368     -32.253
  H      219.448     291.152     -32.897
  H      218.110     290.659     -31.887
  H      218.544     292.348     -32.000

 6  7  8  9  10  11  12  13  14  15  16  26  31  32  33  34  35 0
 6-311+G(2d,p)
 ****
 36  37 0
 6-311+G(2d,p)
 ****
 1  2  3  4  5  17  18  19  20  21  22  23  24  25 0
 3-21G
 ****
 27  28  29  30  38  39  40  41  42  43  44  45 0
 3-21G
 ****


