%nproc=1
%NoSave
%Mem=1900MB
#P OB98/GEN NMR

erre ene a

0 1
  C     -166.855    -252.732     171.861
  O     -166.864    -254.110     171.547
  H     -167.280    -252.156     171.037
  H     -167.460    -252.570     172.756
  H     -165.832    -252.398     172.061
  P     -166.057    -254.558     170.234
  C     -165.107    -256.813     171.091
  O     -166.031    -256.165     170.226
  C     -165.584    -258.232     171.392
  O     -166.646    -258.158     172.378
  C     -166.115    -259.003     170.172
  O     -165.376    -260.214     169.992
  C     -167.544    -259.365     170.546
  O     -167.915    -260.684     170.145
  C     -167.564    -259.215     172.063
  N     -172.118    -261.209     173.176
  C     -170.893    -261.772     173.091
  N     -169.704    -261.168     172.897
  C     -169.856    -259.835     172.811
  C     -171.035    -259.115     172.902
  C     -172.211    -259.861     173.076
  N     -173.466    -259.292     173.109
  N     -170.794    -257.762     172.758
  C     -169.499    -257.671     172.539
  N     -168.892    -258.899     172.544
  O     -164.545    -254.159     170.578
  O     -166.519    -253.929     168.963
  H     -167.574    -261.291     170.829
  H     -164.155    -253.676     169.828
  H     -170.865    -262.854     173.187
  H     -168.960    -256.756     172.326
  H     -167.220    -260.124     172.572
  H     -168.228    -258.654     170.067
  H     -166.087    -258.409     169.253
  H     -164.754    -258.782     171.856
  H     -165.033    -256.256     172.031
  H     -174.262    -259.911     173.118
  H     -173.553    -258.303     172.925
  H     -164.123    -256.826     170.615
  P     -165.019    -260.622     168.474
  C     -162.605    -261.265     169.206
  O     -163.795    -261.657     168.530
  O     -164.349    -259.287     167.896
  O     -166.200    -261.051     167.671
  H     -164.472    -259.244     166.927
  H     -161.888    -262.058     169.156
  H     -162.830    -261.052     170.230
  H     -162.202    -260.390     168.740

 6  7  8  9  10  11  12  13  14  15  25  28  32  33  34  35 0
 6-311+G(2d,p)
 ****
 36  39  40 0
 6-311+G(2d,p)
 ****
 1  2  3  4  5  16  17  18  19  20  21  22  23  24 0
 3-21G
 ****
 26  27  29  30  31  37  38  41  42  43  44  45  46  47  48 0
 3-21G
 ****


