%nproc=1
%NoSave
%Mem=1900MB
#P OB98/GEN NMR

erre ene a

0 1
  C      413.713     694.174    1076.309
  O      414.753     695.123    1076.179
  H      412.930     694.406    1075.583
  H      413.283     694.215    1077.314
  H      414.096     693.171    1076.107
  P      415.960     695.023    1077.230
  C      417.218     693.380    1075.656
  O      416.700     693.627    1076.957
  C      418.558     692.646    1075.768
  O      419.508     693.477    1076.480
  C      418.486     691.348    1076.559
  O      417.962     690.271    1075.794
  C      419.952     691.148    1076.911
  O      420.669     690.500    1075.849
  C      420.444     692.588    1077.120
  N      420.608     692.902    1078.541
  C      421.888     693.304    1078.926
  O      422.831     693.395    1078.138
  N      422.056     693.560    1080.259
  C      421.111     693.408    1081.228
  O      421.346     693.600    1082.414
  C      419.782     692.966    1080.768
  C      419.598     692.733    1079.461
  O      415.213     694.794    1078.623
  O      416.863     696.214    1077.264
  H      415.254     695.608    1079.156
  H      421.583     690.403    1076.167
  H      422.977     693.851    1080.555
  H      419.010     692.837    1081.517
  H      418.634     692.397    1079.101
  H      421.414     692.740    1076.624
  H      420.055     690.523    1077.793
  H      417.915     691.492    1077.481
  H      418.939     692.466    1074.756
  H      417.377     694.326    1075.134
  H      416.493     692.786    1075.089
  P      417.090     689.164    1076.568
  C      414.714     690.128    1075.947
  O      415.703     689.881    1076.937
  O      417.887     689.069    1077.951
  O      416.979     687.879    1075.818
  H      418.353     689.904    1078.157
  H      413.872     690.611    1076.397
  H      414.404     689.200    1075.514
  H      415.122     690.759    1075.185

 6  7  8  9  10  11  12  13  14  15  16  27  31  32  33  34  35 0
 6-311+G(2d,p)
 ****
 36  37 0
 6-311+G(2d,p)
 ****
 1  2  3  4  5  17  18  19  20  21  22  23  24  25 0
 3-21G
 ****
 26  28  29  30  38  39  40  41  42  43  44  45 0
 3-21G
 ****


