%nproc=1
%NoSave
%Mem=1900MB
#P OB98/GEN NMR

erre ene a

0 1
  C       53.180      19.329     -30.232
  O       53.990      18.893     -29.135
  P       54.356      17.332     -29.064
  C       52.068      16.604     -28.017
  O       53.474      16.736     -27.866
  C       51.464      15.978     -26.763
  O       52.028      14.665     -26.524
  C       51.721      16.766     -25.488
  O       50.910      17.928     -25.424
  C       51.417      15.713     -24.431
  O       50.000      15.605     -24.224
  C       51.951      14.428     -25.098
  N       53.233      13.994     -24.560
  C       53.172      13.172     -23.438
  O       52.116      12.842     -22.903
  N       54.376      12.758     -22.935
  C       55.605      13.102     -23.417
  O       56.651      12.691     -22.931
  C       55.607      14.011     -24.572
  C       54.440      14.411     -25.084
  O       55.841      17.390     -28.476
  O       54.221      16.642     -30.380
  H       55.969      18.113     -27.839
  H       49.589      15.641     -25.111
  H       54.353      12.152     -22.130
  H       56.565      14.326     -24.964
  H       54.420      15.084     -25.935
  H       51.233      13.608     -24.966
  H       51.872      15.947     -23.463
  H       52.779      17.052     -25.434
  H       50.384      15.863     -26.925
  H       51.844      15.969     -28.879
  H       51.638      17.591     -28.213
  P       51.571      19.304     -25.927
  C       51.864      19.898     -23.399
  O       51.494      20.321     -24.692
  O       50.450      19.835     -26.938
  O       52.922      19.131     -26.539
  H       49.549      19.745     -26.588
  H       52.079      20.780     -22.789
  H       52.753      19.264     -23.423
  H       51.036      19.349     -22.942
  H       53.014      20.383     -30.156
  H       52.240      18.818     -30.207
  H       53.680      19.112     -31.153

 3  4  5  6  7  8  9  10  11  12  13  24  28  29  30  31  32 0
 6-311+G(2d,p)
 ****
 33  34 0
 6-311+G(2d,p)
 ****
 1  2  14  15  16  17  18  19  20  21  22  23  25  26  27 0
 3-21G
 ****
 35  36  37  38  39  40  41  42  43  44  45 0
 3-21G
 ****


