%nproc=1
%NoSave
%Mem=1900MB
#P OB98/GEN NMR

erre ene a

0 1
  C      335.998    -744.510     609.565
  O      336.143    -745.758     610.219
  H      336.753    -743.822     609.962
  H      335.011    -744.095     609.767
  H      336.151    -744.627     608.488
  P      335.103    -746.906     609.794
  C      332.557    -746.749     609.293
  O      333.640    -746.317     610.107
  C      331.410    -745.749     609.358
  O      331.854    -744.433     608.943
  C      330.217    -746.107     608.479
  O      329.366    -747.042     609.122
  C      329.563    -744.743     608.306
  O      328.750    -744.387     609.442
  C      330.776    -743.820     608.185
  N      330.743    -740.476     604.397
  C      330.252    -740.365     605.679
  N      329.613    -739.223     605.992
  N      330.370    -741.308     606.585
  C      330.999    -742.415     606.119
  C      331.551    -742.628     604.881
  C      331.443    -741.572     603.892
  O      331.907    -741.590     602.763
  N      332.120    -743.879     604.799
  C      331.901    -744.416     605.983
  N      331.205    -743.580     606.818
  O      335.297    -748.027     610.929
  O      335.291    -747.473     608.423
  H      329.325    -744.183     610.199
  H      335.119    -748.905     610.544
  H      330.630    -739.715     603.748
  H      332.215    -745.408     606.276
  H      330.588    -742.827     608.631
  H      328.896    -744.720     607.432
  H      329.208    -738.630     605.266
  H      330.548    -746.484     607.500
  H      329.229    -739.141     606.924
  H      331.100    -745.666     610.410
  H      332.208    -747.728     609.653
  H      332.913    -746.851     608.254
  P      328.408    -747.942     608.201
  C      326.747    -747.234     606.313
  O      327.297    -746.944     607.603
  O      327.591    -748.823     609.261
  O      329.129    -748.784     607.194
  H      327.182    -749.588     608.811
  H      326.027    -746.485     606.056
  H      326.272    -748.193     606.335
  H      327.531    -747.241     605.585

 6  7  8  9  10  11  12  13  14  15  26  29  33  34 0
 6-311+G(2d,p)
 ****
 36  38  39  40  41 0
 6-311+G(2d,p)
 ****
 1  2  3  4  5  16  17  18  19  20  21  22  23  24  25 0
 3-21G
 ****
 27  28  30  31  32  35  37  42  43  44  45  46  47 0
 3-21G
 ****
 48  49 0
 3-21G
 ****


