%nproc=1
%NoSave
%Mem=1900MB
#P OB98/GEN NMR

erre ene a

0 1
  C      501.877      86.116     742.347
  O      501.705      87.399     741.754
  P      502.820      88.528     742.028
  C      503.708      88.884     739.629
  O      503.978      88.355     740.927
  C      505.006      89.000     738.821
  O      505.870      90.022     739.347
  C      505.835      87.737     738.820
  O      505.258      86.747     737.976
  C      507.193      88.263     738.367
  O      507.238      88.397     736.931
  C      507.222      89.661     739.022
  N      508.094      89.717     740.193
  C      509.460      89.857     739.935
  O      509.878      89.886     738.778
  N      510.323      89.952     741.006
  C      509.862      89.898     742.212
  N      510.757      89.996     743.230
  C      508.423      89.737     742.527
  C      507.611      89.654     741.476
  O      503.290      88.648     743.435
  O      502.086      89.869     741.539
  H      507.973      89.018     736.749
  H      502.430      90.620     742.065
  H      508.080      89.708     743.545
  H      506.541      89.527     741.616
  H      507.587      90.410     738.305
  H      508.002      87.591     738.654
  H      505.918      87.343     739.841
  H      504.732      89.270     737.792
  H      511.734      90.091     742.989
  H      503.234      89.859     739.728
  H      510.488      90.022     744.206
  H      502.990      88.225     739.133
  P      504.874      85.337     738.638
  C      502.366      85.998     738.621
  O      503.468      85.508     739.372
  O      505.920      85.213     739.845
  O      504.980      84.169     737.718
  H      506.158      84.280     739.980
  H      501.439      85.759     739.167
  H      502.324      85.539     737.631
  H      502.445      87.082     738.519
  H      501.059      85.483     742.072
  H      501.908      86.216     743.412
  H      502.793      85.684     742.003

 3  4  5  6  7  8  9  10  11  12  13  23  27  28  29  30  32 0
 6-311+G(2d,p)
 ****
 34  35 0
 6-311+G(2d,p)
 ****
 1  2  14  15  16  17  18  19  20  21  22  24  25  26 0
 3-21G
 ****
 31  33  36  37  38  39  40  41  42  43  44  45  46 0
 3-21G
 ****


