%nproc=1
%NoSave
%Mem=1900MB
#P OB98/GEN NMR

erre ene a

0 1
  C       30.989     447.708    -401.562
  O       29.754     447.666    -402.286
  P       28.837     446.360    -402.200
  C       26.443     447.274    -402.558
  O       27.392     446.759    -401.632
  C       26.307     448.786    -402.388
  O       27.522     449.475    -402.761
  C       25.234     449.385    -403.285
  O       23.892     449.075    -402.978
  C       25.617     450.858    -403.311
  O       25.114     451.548    -402.162
  C       27.162     450.776    -403.262
  N       27.777     451.040    -404.564
  C       27.801     452.367    -404.976
  O       27.293     453.284    -404.325
  N       28.391     452.610    -406.186
  C       28.923     451.665    -407.018
  O       29.420     451.934    -408.109
  C       28.849     450.279    -406.545
  C       28.292     450.027    -405.356
  O       29.461     445.163    -401.561
  O       28.520     446.053    -403.748
  H       25.326     452.495    -402.274
  H       28.568     445.089    -403.877
  H       28.424     453.568    -406.493
  H       29.256     449.503    -407.181
  H       28.229     449.008    -404.983
  H       27.560     451.513    -402.550
  H       25.213     451.369    -404.189
  H       25.394     449.006    -404.308
  H       26.114     449.004    -401.336
  H       25.475     446.786    -402.401
  H       26.761     447.011    -403.573
  P       23.241     447.634    -403.248
  C       22.300     446.742    -401.000
  O       23.373     446.759    -401.913
  O       23.563     446.967    -404.542
  O       21.675     447.992    -403.242
  H       21.217     447.399    -403.868
  H       22.573     446.116    -400.149
  H       21.404     446.327    -401.467
  H       22.095     447.758    -400.635
  H       31.470     448.648    -401.732
  H       31.626     446.916    -401.897
  H       30.794     447.591    -400.517

 3  4  5  6  7  8  9  10  11  12  13  23  28  29  30  31  32 0
 6-311+G(2d,p)
 ****
 33  34 0
 6-311+G(2d,p)
 ****
 1  2  14  15  16  17  18  19  20  21  22  24  25  26  27 0
 3-21G
 ****
 35  36  37  38  39  40  41  42  43  44  45 0
 3-21G
 ****


