%nproc=1
%NoSave
%Mem=1900MB
#P OB98/GEN NMR

erre ene a

0 1
  C      319.797      61.269     -35.695
  O      318.370      61.429     -35.721
  P      317.365      60.578     -34.802
  C      316.088      59.881     -36.945
  O      316.680      59.454     -35.720
  C      315.414      58.709     -37.662
  O      316.409      57.802     -38.188
  C      314.537      57.831     -36.784
  O      313.311      58.455     -36.444
  C      314.385      56.588     -37.665
  O      313.325      56.748     -38.618
  C      315.744      56.532     -38.390
  N      316.581      55.427     -37.945
  C      316.167      54.142     -38.315
  O      315.106      53.979     -38.912
  N      316.969      53.080     -37.983
  C      318.026      53.269     -37.257
  N      318.790      52.177     -36.970
  C      318.420      54.587     -36.733
  C      317.661      55.614     -37.115
  O      316.389      61.411     -34.041
  O      318.309      59.742     -33.812
  H      317.822      59.543     -32.989
  H      313.567      57.507     -39.186
  H      319.284      54.694     -36.091
  H      317.888      56.621     -36.785
  H      315.589      56.459     -39.474
  H      314.155      55.693     -37.078
  H      315.087      57.565     -35.875
  H      314.830      59.116     -38.502
  H      318.496      51.288     -37.355
  H      316.880      60.285     -37.590
  H      319.642      52.216     -36.432
  H      315.371      60.682     -36.740
  P      313.297      59.348     -35.107
  C      312.665      57.580     -33.310
  O      313.681      58.390     -33.881
  O      311.742      59.658     -34.883
  O      314.097      60.601     -35.192
  H      311.633      60.575     -34.560
  H      313.128      56.694     -32.871
  H      311.930      57.262     -34.056
  H      312.163      58.142     -32.520
  H      320.244      61.945     -36.393
  H      320.048      60.263     -35.961
  H      320.162      61.479     -34.711

 3  4  5  6  7  8  9  10  11  12  13  24  27  28  29  30  32 0
 6-311+G(2d,p)
 ****
 34  35 0
 6-311+G(2d,p)
 ****
 1  2  14  15  16  17  18  19  20  21  22  23  25  26 0
 3-21G
 ****
 31  33  36  37  38  39  40  41  42  43  44  45  46 0
 3-21G
 ****


