%nproc=1
%NoSave
%Mem=1900MB
#P OB98/GEN NMR

erre ene a

0 1
  C     -944.973     104.929    -892.800
  O     -945.811     103.821    -893.040
  H     -945.110     105.667    -893.590
  H     -943.926     104.616    -892.790
  H     -945.213     105.397    -891.830
  P     -945.888     102.688    -891.910
  C     -948.418     102.190    -891.600
  O     -947.275     102.895    -891.140
  C     -949.303     103.110    -892.450
  O     -948.546     103.571    -893.610
  C     -950.578     102.424    -892.980
  O     -951.659     103.360    -892.940
  C     -950.241     102.100    -894.420
  O     -951.396     101.989    -895.250
  C     -949.301     103.262    -894.780
  N     -948.420     102.913    -895.900
  C     -948.446     103.778    -897.010
  O     -949.172     104.771    -897.000
  N     -947.677     103.474    -898.100
  C     -947.024     102.356    -898.120
  N     -946.303     102.090    -899.260
  C     -947.026     101.370    -897.020
  C     -947.731     101.718    -895.950
  O     -944.793     103.155    -890.840
  O     -945.648     101.288    -892.380
  H     -951.941     101.255    -894.900
  H     -944.387     102.397    -890.380
  H     -946.476     100.439    -897.100
  H     -947.804     101.063    -895.090
  H     -949.875     104.153    -895.050
  H     -949.703     101.151    -894.470
  H     -950.848     101.527    -892.400
  H     -949.560     103.996    -891.860
  H     -946.335     102.775    -900.000
  H     -948.985     101.841    -890.740
  H     -945.794     101.227    -899.400
  H     -948.088     101.323    -892.190
  P     -952.875     103.013    -891.940
  C     -953.389     104.952    -890.270
  O     -952.606     103.790    -890.550
  O     -952.629     101.474    -891.570
  O     -954.224     103.231    -892.560
  H     -953.302     100.928    -892.010
  H     -953.101     105.356    -889.322
  H     -954.425     104.686    -890.244
  H     -953.227     105.684    -891.034

 6  7  8  9  10  11  12  13  14  15  16  26  30  31  32  33  35 0
 6-311+G(2d,p)
 ****
 37  38 0
 6-311+G(2d,p)
 ****
 1  2  3  4  5  17  18  19  20  21  22  23  24  25 0
 3-21G
 ****
 27  28  29  34  36  39  40  41  42  43  44  45  46 0
 3-21G
 ****


