%nproc=1
%NoSave
%Mem=1900MB
#P OB98/GEN NMR

erre ene a

0 1
  C      145.237     -21.337     -73.952
  O      144.788     -21.957     -75.145
  P      145.547     -21.577     -76.509
  C      143.568     -20.505     -77.806
  O      144.789     -20.295     -77.107
  C      143.615     -19.888     -79.205
  O      143.626     -18.445     -79.081
  C      144.834     -20.303     -80.031
  O      144.417     -20.439     -81.389
  C      145.761     -19.107     -79.918
  O      146.670     -19.039     -81.014
  C      144.751     -17.951     -79.839
  N      145.324     -16.757     -79.227
  C      145.911     -15.826     -80.089
  O      145.995     -16.068     -81.293
  N      146.430     -14.670     -79.560
  C      146.460     -14.511     -78.273
  N      146.983     -13.349     -77.798
  C      145.964     -15.526     -77.323
  C      145.397     -16.603     -77.863
  O      145.115     -22.755     -77.499
  O      147.030     -21.457     -76.383
  H      147.233     -18.243     -80.893
  H      145.827     -22.952     -78.138
  H      146.047     -15.359     -76.259
  H      144.984     -17.388     -77.244
  H      144.386     -17.689     -80.841
  H      146.342     -19.172     -78.989
  H      145.282     -21.239     -79.685
  H      142.691     -20.161     -79.729
  H      147.330     -12.675     -78.469
  H      142.754     -20.030     -77.251
  H      147.049     -13.137     -76.812
  H      143.362     -21.578     -77.862
  P      144.677     -21.848     -82.111
  C      146.412     -20.895     -83.745
  O      146.184     -21.764     -82.652
  O      143.839     -21.672     -83.468
  O      144.284     -23.095     -81.392
  H      143.864     -22.500     -83.979
  H      147.490     -20.830     -83.919
  H      146.030     -19.895     -83.526
  H      145.933     -21.293     -84.644
  H      144.647     -21.679     -73.128
  H      145.140     -20.275     -74.043
  H      146.263     -21.588     -73.784

 3  4  5  6  7  8  9  10  11  12  13  21  23  27  28  29  30  32 0
 6-311+G(2d,p)
 ****
 34  35 0
 6-311+G(2d,p)
 ****
 1  2  14  15  16  17  18  19  20  22  24  25  26 0
 3-21G
 ****
 31  33  36  37  38  39  40  41  42  43  44  45  46 0
 3-21G
 ****


