%nproc=1
%NoSave
%Mem=1900MB
#P OB98/GEN NMR

erre ene a

0 1
  C       16.285     100.597      47.443
  O       14.970     100.229      47.092
  H       16.768      99.746      47.928
  H       16.256     101.433      48.147
  H       16.871     100.879      46.564
  P       14.199     101.090      45.987
  C       12.171     101.650      47.481
  O       13.273     102.162      46.744
  C       11.917     102.458      48.754
  O       13.177     102.819      49.359
  C       11.168     103.765      48.480
  O        9.756     103.642      48.469
  C       11.633     104.643      49.639
  O       10.791     104.475      50.791
  C       13.048     104.129      49.928
  N       15.290     108.720      50.107
  C       14.112     108.307      50.702
  N       13.440     109.248      51.397
  N       13.645     107.090      50.603
  C       14.376     106.290      49.795
  C       15.547     106.593      49.136
  C       16.098     107.920      49.312
  O       17.143     108.330      48.820
  N       15.984     105.538      48.372
  C       15.033     104.635      48.502
  N       14.079     105.014      49.417
  O       13.120     100.059      45.398
  O       15.054     101.643      44.888
  H        9.936     104.910      50.607
  H       12.951     100.264      44.461
  H       15.615     109.660      50.243
  H       15.008     103.677      47.996
  H       13.223     104.027      51.006
  H       11.588     105.701      49.368
  H       13.708     110.217      51.434
  H       11.514     104.221      47.548
  H       12.482     109.039      51.688
  H       11.381     101.833      49.478
  H       12.420     100.619      47.736
  H       11.273     101.627      46.857
  P        8.945     103.627      47.093
  C        7.374     105.594      47.840
  O        8.269     105.058      46.890
  O        7.702     102.674      47.417
  O        9.712     103.161      45.900
  H        7.863     101.772      47.081
  H        7.039     106.556      47.512
  H        7.871     105.692      48.783
  H        6.533     104.941      47.946

 6  7  8  9  10  11  12  13  14  15  26  29  33  34 0
 6-311+G(2d,p)
 ****
 36  38  39  40  41 0
 6-311+G(2d,p)
 ****
 1  2  3  4  5  16  17  18  19  20  21  22  23  24  25 0
 3-21G
 ****
 27  28  30  31  32  35  37  42  43  44  45  46  47 0
 3-21G
 ****
 48  49 0
 3-21G
 ****


