%nproc=1
%NoSave
%Mem=1900MB
#P OB98/GEN NMR

erre ene a

0 1
  C      -28.688     430.307    -435.106
  O      -28.973     429.266    -436.023
  P      -28.709     427.754    -435.545
  C      -26.650     426.942    -436.966
  O      -27.140     427.498    -435.759
  C      -27.017     427.847    -438.149
  O      -26.630     429.206    -437.866
  C      -26.323     427.488    -439.461
  O      -26.919     426.357    -440.076
  C      -26.475     428.790    -440.236
  O      -27.787     428.878    -440.808
  C      -26.309     429.844    -439.124
  N      -24.970     430.436    -439.086
  C      -24.878     431.769    -439.487
  O      -25.849     432.429    -439.856
  N      -23.618     432.311    -439.470
  C      -22.466     431.650    -439.158
  O      -21.355     432.175    -439.199
  C      -22.621     430.238    -438.772
  C      -23.846     429.708    -438.758
  O      -29.418     426.946    -436.729
  O      -29.235     427.471    -434.178
  H      -29.425     427.453    -437.561
  H      -28.405     428.501    -440.147
  H      -23.528     433.282    -439.734
  H      -21.725     429.682    -438.531
  H      -23.976     428.666    -438.488
  H      -27.036     430.650    -439.252
  H      -25.753     428.880    -441.056
  H      -25.258     427.288    -439.275
  H      -28.106     427.819    -438.270
  H      -27.089     425.954    -437.110
  H      -25.561     426.838    -436.890
  P      -25.999     425.545    -441.122
  C      -26.631     425.893    -443.633
  O      -26.001     426.397    -442.478
  O      -26.932     424.285    -441.443
  O      -24.647     425.193    -440.584
  H      -27.865     424.522    -441.556
  H      -26.842     426.726    -444.310
  H      -27.576     425.394    -443.386
  H      -25.966     425.185    -444.138
  H      -28.910     431.251    -435.558
  H      -27.652     430.274    -434.840
  H      -29.286     430.182    -434.228

 3  4  5  6  7  8  9  10  11  12  13  24  28  29  30  31  32 0
 6-311+G(2d,p)
 ****
 33  34 0
 6-311+G(2d,p)
 ****
 1  2  14  15  16  17  18  19  20  21  22  23  25  26  27 0
 3-21G
 ****
 35  36  37  38  39  40  41  42  43  44  45 0
 3-21G
 ****


