%nproc=1
%NoSave
%Mem=1900MB
#P OB98/GEN NMR

erre ene a

0 1
  C     -367.184    -259.512     126.736
  O     -365.774    -259.661     126.933
  P     -364.828    -258.477     126.414
  C     -363.665    -259.751     124.454
  O     -364.545    -258.698     124.847
  C     -363.909    -260.118     122.987
  O     -363.967    -258.939     122.162
  C     -362.794    -260.967     122.392
  O     -362.919    -262.318     122.805
  C     -363.008    -260.759     120.892
  O     -363.906    -261.737     120.345
  C     -363.628    -259.340     120.818
  N     -362.750    -258.371     120.186
  C     -362.538    -258.547     118.811
  O     -363.067    -259.481     118.218
  N     -361.721    -257.661     118.160
  C     -361.135    -256.715     118.824
  N     -360.325    -255.869     118.123
  C     -361.306    -256.519     120.280
  C     -362.116    -257.372     120.893
  O     -363.413    -258.808     127.093
  O     -365.309    -257.106     126.778
  H     -364.232    -261.349     119.502
  H     -362.930    -257.981     127.297
  H     -360.787    -255.712     120.788
  H     -362.301    -257.305     121.960
  H     -364.572    -259.372     120.252
  H     -362.068    -260.848     120.338
  H     -361.817    -260.563     122.684
  H     -364.868    -260.648     122.913
  H     -360.233    -256.034     117.124
  H     -363.828    -260.627     125.087
  H     -359.815    -255.097     118.538
  H     -362.626    -259.428     124.616
  P     -361.704    -262.965     123.610
  C     -360.651    -263.921     121.475
  O     -360.488    -263.027     122.562
  O     -362.140    -264.499     123.714
  O     -361.383    -262.380     124.950
  H     -361.512    -264.991     124.278
  H     -359.872    -263.726     120.738
  H     -361.632    -263.775     121.000
  H     -360.559    -264.957     121.819
  H     -367.691    -260.369     127.127
  H     -367.390    -259.422     125.690
  H     -367.524    -258.634     127.244

 3  4  5  6  7  8  9  10  11  12  13  21  23  27  28  29  30  32 0
 6-311+G(2d,p)
 ****
 34  35 0
 6-311+G(2d,p)
 ****
 1  2  14  15  16  17  18  19  20  22  24  25  26 0
 3-21G
 ****
 31  33  36  37  38  39  40  41  42  43  44  45  46 0
 3-21G
 ****


