%nproc=1
%NoSave
%Mem=1900MB
#P OB98/GEN NMR

erre ene a

0 1
  C      244.788      43.835      31.954
  O      243.715      44.742      31.788
  P      242.219      44.314      32.156
  C      241.782      44.086      29.642
  O      241.636      43.474      30.917
  C      240.814      43.488      28.623
  O      241.217      42.121      28.333
  C      239.350      43.445      29.079
  O      238.546      43.644      27.911
  C      239.191      42.014      29.568
  O      237.836      41.588      29.602
  C      240.061      41.284      28.551
  N      239.224      36.250      28.232
  C      238.589      37.303      27.676
  N      238.855      38.616      27.831
  C      239.902      38.795      28.655
  C      240.629      37.820      29.319
  C      240.267      36.485      29.065
  N      240.925      35.399      29.595
  N      241.593      38.403      30.123
  C      241.445      39.701      29.944
  N      240.480      39.981      29.017
  O      241.335      45.422      32.626
  O      242.402      43.200      33.292
  H      237.817      40.634      29.803
  H      242.160      43.574      34.164
  H      237.762      37.061      27.017
  H      242.005      40.472      30.455
  H      239.552      41.151      27.590
  H      239.599      41.925      30.582
  H      239.101      44.183      29.849
  H      240.908      44.057      27.689
  H      242.810      43.921      29.304
  H      240.665      34.489      29.245
  H      241.850      35.533      29.998
  H      241.618      45.167      29.729
  P      237.184      44.482      28.009
  C      235.947      42.244      28.125
  O      236.108      43.525      28.709
  O      236.739      45.127      26.739
  O      237.497      45.569      29.147
  H      236.844      46.296      29.090
  H      235.294      42.327      27.252
  H      235.482      41.576      28.856
  H      236.908      41.824      27.822
  H      245.702      44.305      31.655
  H      244.619      42.968      31.350
  H      244.855      43.546      32.982

 3  4  5  6  7  8  9  10  11  12  22  25  29  30  31  32 0
 6-311+G(2d,p)
 ****
 33  36  37 0
 6-311+G(2d,p)
 ****
 1  2  13  14  15  16  17  18  19  20  21  23  24  26 0
 3-21G
 ****
 27  28  34  35  38  39  40  41  42  43  44  45  46  47  48 0
 3-21G
 ****


