%nproc=1
%NoSave
%Mem=1900MB
#P OB98/GEN NMR

erre ene a

0 1
  C     -332.558    -839.283    -166.062
  O     -331.383    -839.993    -165.710
  H     -332.944    -839.689    -167.004
  H     -332.334    -838.223    -166.203
  H     -333.315    -839.407    -165.282
  P     -330.595    -839.487    -164.411
  C     -329.006    -841.544    -164.527
  O     -329.120    -840.127    -164.481
  C     -327.646    -841.921    -165.118
  O     -327.535    -841.400    -166.460
  C     -326.457    -841.339    -164.359
  O     -326.149    -842.074    -163.180
  C     -325.365    -841.456    -165.409
  O     -324.767    -842.759    -165.417
  C     -326.129    -841.183    -166.716
  N     -325.865    -839.843    -167.231
  C     -324.653    -839.684    -167.905
  O     -323.844    -840.594    -168.072
  N     -324.385    -838.416    -168.356
  C     -325.162    -837.312    -168.156
  O     -324.832    -836.195    -168.532
  C     -326.418    -837.534    -167.421
  C     -326.708    -838.771    -166.996
  O     -331.300    -840.287    -163.217
  O     -330.622    -838.013    -164.189
  H     -331.866    -839.680    -162.707
  H     -324.350    -842.871    -164.539
  H     -323.513    -838.274    -168.846
  H     -327.062    -836.684    -167.243
  H     -327.625    -838.964    -166.442
  H     -325.832    -841.908    -167.487
  H     -324.570    -840.732    -165.219
  H     -326.632    -840.288    -164.134
  H     -327.581    -843.014    -165.166
  H     -329.794    -841.959    -165.167
  H     -329.119    -841.945    -163.520
  P     -325.299    -841.328    -162.041
  C     -326.614    -842.403    -160.021
  O     -325.380    -842.268    -160.751
  O     -326.258    -840.090    -161.717
  O     -323.919    -840.969    -162.494
  H     -327.189    -840.293    -161.907
  H     -326.470    -843.069    -159.196
  H     -327.370    -842.795    -160.668
  H     -326.919    -841.445    -159.656

 6  7  8  9  10  11  12  13  14  15  16  27  31  32  33  34  35 0
 6-311+G(2d,p)
 ****
 36  37 0
 6-311+G(2d,p)
 ****
 1  2  3  4  5  17  18  19  20  21  22  23  24  25 0
 3-21G
 ****
 26  28  29  30  38  39  40  41  42  43  44  45 0
 3-21G
 ****


