%nproc=1
%NoSave
%Mem=1900MB
#P OB98/GEN NMR

erre ene a

0 1
  C      654.765    -927.819    -547.364
  O      654.563    -928.565    -546.179
  H      654.465    -926.781    -547.183
  H      654.155    -928.214    -548.180
  H      655.818    -927.837    -547.645
  P      654.777    -930.150    -546.229
  C      657.276    -929.885    -545.606
  O      656.017    -930.451    -545.259
  C      657.731    -928.912    -544.533
  O      656.831    -927.782    -544.457
  C      657.742    -929.522    -543.131
  O      658.857    -930.363    -542.964
  C      657.733    -928.269    -542.269
  O      659.039    -927.695    -542.175
  C      656.781    -927.354    -543.080
  N      655.410    -927.370    -542.565
  C      655.152    -926.547    -541.471
  O      656.044    -925.844    -540.988
  N      653.889    -926.551    -540.930
  C      652.964    -927.288    -541.452
  N      651.734    -927.252    -540.868
  C      653.192    -928.172    -542.613
  C      654.425    -928.166    -543.113
  O      654.891    -930.769    -547.594
  O      653.526    -930.729    -545.410
  H      659.394    -927.708    -543.087
  H      652.770    -930.886    -546.012
  H      652.389    -928.774    -543.018
  H      654.680    -928.784    -543.973
  H      657.139    -926.312    -543.058
  H      657.383    -928.490    -541.260
  H      656.810    -930.076    -542.951
  H      658.727    -928.529    -544.800
  H      651.625    -926.641    -540.071
  H      657.141    -929.357    -546.563
  H      650.922    -927.717    -541.241
  H      658.031    -930.671    -545.748
  P      658.790    -931.622    -541.966
  C      658.242    -933.072    -544.033
  O      659.076    -932.912    -542.880
  O      657.577    -931.684    -541.117
  O      660.159    -931.485    -541.121
  H      660.094    -930.744    -540.457
  H      658.526    -933.960    -544.558
  H      658.357    -932.225    -544.677
  H      657.220    -933.151    -543.726

 6  7  8  9  10  11  12  13  14  15  16  26  30  31  32  33  35 0
 6-311+G(2d,p)
 ****
 37  38 0
 6-311+G(2d,p)
 ****
 1  2  3  4  5  17  18  19  20  21  22  23  24  25 0
 3-21G
 ****
 27  28  29  34  36  39  40  41  42  43  44  45  46 0
 3-21G
 ****


