%nproc=1
%NoSave
%Mem=1900MB
#P OB98/GEN NMR

erre ene a

0 1
  C     1505.960      42.901    -611.871
  O     1505.125      43.893    -611.274
  P     1503.540      43.682    -611.365
  C     1503.250      46.036    -610.287
  O     1502.892      45.162    -611.346
  C     1503.016      47.482    -610.710
  O     1503.900      47.840    -611.799
  C     1501.620      47.777    -611.232
  O     1500.683      47.978    -610.192
  C     1501.854      49.069    -611.992
  O     1501.887      50.190    -611.085
  C     1503.246      48.852    -612.603
  N     1504.395      50.009    -617.396
  C     1504.780      50.635    -616.214
  N     1505.522      51.752    -616.335
  N     1504.465      50.197    -615.034
  C     1503.713      49.065    -615.067
  C     1503.279      48.356    -616.165
  C     1503.627      48.859    -617.469
  O     1503.272      48.382    -618.555
  N     1502.539      47.248    -615.789
  C     1502.527      47.283    -614.469
  N     1503.181      48.381    -613.983
  O     1503.154      43.103    -609.931
  O     1503.091      42.783    -612.478
  H     1501.824      51.007    -611.622
  H     1502.268      42.692    -609.958
  H     1504.663      50.410    -618.304
  H     1502.041      46.551    -613.845
  H     1503.854      49.751    -612.582
  H     1501.069      49.294    -612.732
  H     1505.746      52.166    -617.223
  H     1501.286      46.997    -611.932
  H     1505.746      52.267    -615.500
  H     1503.250      48.141    -609.850
  H     1504.302      45.881    -610.023
  H     1502.630      45.799    -609.409
  P     1499.589      46.818    -609.988
  C     1497.772      48.626    -609.519
  O     1498.173      47.521    -610.309
  O     1499.568      46.626    -608.387
  O     1499.868      45.538    -610.717
  H     1499.274      45.717    -608.162
  H     1496.943      49.142    -610.023
  H     1498.589      49.340    -609.398
  H     1497.432      48.293    -608.551
  H     1506.987      43.170    -611.735
  H     1505.744      42.836    -612.917
  H     1505.775      41.954    -611.409

 3  4  5  6  7  8  9  10  11  12  23  26  30  31 0
 6-311+G(2d,p)
 ****
 33  35  36  37  38 0
 6-311+G(2d,p)
 ****
 1  2  13  14  15  16  17  18  19  20  21  22  24  25 0
 3-21G
 ****
 27  28  29  32  34  39  40  41  42  43  44  45  46  47  48  49 0
 3-21G
 ****


