%nproc=1
%NoSave
%Mem=1900MB
#P OB98/GEN NMR

erre ene a

0 1
  C      -35.450      66.086      36.159
  O      -36.803      65.861      36.562
  P      -37.909      66.807      35.882
  C      -37.752      68.664      37.682
  O      -37.594      68.322      36.313
  C      -37.280      70.095      37.960
  O      -37.387      70.415      39.379
  C      -35.826      70.355      37.554
  O      -35.755      71.713      37.098
  C      -35.082      70.236      38.871
  O      -33.800      70.854      38.807
  C      -36.094      70.902      39.801
  N      -33.105      71.868      43.753
  C      -32.986      72.252      42.432
  N      -31.943      73.054      42.129
  N      -33.816      71.885      41.492
  C      -34.834      71.115      41.950
  C      -35.071      70.681      43.233
  C      -34.124      71.069      44.257
  O      -34.187      70.760      45.441
  N      -36.228      69.941      43.309
  C      -36.643      69.879      42.055
  N      -35.867      70.618      41.205
  O      -39.242      66.447      36.691
  O      -38.070      66.582      34.416
  H      -33.391      70.779      39.696
  H      -39.795      65.835      36.171
  H      -32.427      72.166      44.433
  H      -37.510      69.337      41.715
  H      -36.090      71.997      39.705
  H      -34.945      69.181      39.134
  H      -31.294      73.415      42.813
  H      -35.441      69.678      36.786
  H      -31.855      73.384      41.176
  H      -37.942      70.784      37.421
  H      -37.182      67.973      38.307
  H      -38.802      68.532      37.964
  P      -35.923      71.986      35.530
  C      -33.536      71.252      34.855
  O      -34.923      71.001      34.762
  O      -35.249      73.427      35.339
  O      -37.337      71.989      35.046
  H      -35.765      73.945      34.692
  H      -32.997      70.313      34.713
  H      -33.263      71.671      35.828
  H      -33.241      71.951      34.068
  H      -34.806      65.403      36.673
  H      -35.169      67.090      36.399
  H      -35.362      65.933      35.104

 3  4  5  6  7  8  9  10  11  12  23  26  30  31 0
 6-311+G(2d,p)
 ****
 33  35  36  37  38 0
 6-311+G(2d,p)
 ****
 1  2  13  14  15  16  17  18  19  20  21  22  24  25 0
 3-21G
 ****
 27  28  29  32  34  39  40  41  42  43  44  45  46  47  48  49 0
 3-21G
 ****


