%nproc=1
%NoSave
%Mem=1900MB
#P OB98/GEN NMR

erre ene a

0 1
  C     -346.062    -483.039     132.457
  O     -344.827    -482.332     132.348
  P     -344.501    -481.526     131.002
  C     -343.815    -483.742     129.892
  O     -344.564    -482.542     129.756
  C     -343.231    -484.221     128.553
  O     -344.256    -484.839     127.732
  C     -342.579    -483.107     127.711
  O     -341.453    -483.696     127.047
  C     -343.677    -482.777     126.721
  O     -343.186    -482.078     125.588
  C     -344.243    -484.168     126.453
  N     -345.575    -484.130     125.856
  C     -345.655    -483.747     124.513
  O     -344.649    -483.368     123.919
  N     -346.887    -483.784     123.901
  C     -347.950    -484.028     124.600
  N     -349.147    -484.074     123.951
  C     -347.913    -484.256     126.063
  C     -346.704    -484.319     126.606
  O     -343.289    -480.658     131.045
  O     -345.830    -480.638     130.793
  H     -343.917    -481.979     124.931
  H     -345.579    -479.779     130.394
  H     -348.833    -484.375     126.621
  H     -346.575    -484.487     127.668
  H     -343.582    -484.743     125.792
  H     -344.432    -482.144     127.205
  H     -342.245    -482.254     128.307
  H     -342.483    -484.998     128.776
  H     -349.155    -483.893     122.956
  H     -344.463    -484.525     130.299
  H     -350.012    -484.303     124.420
  H     -343.018    -483.582     130.634
  P     -339.993    -483.517     127.694
  C     -339.556    -481.023     127.079
  O     -339.812    -481.979     128.096
  O     -339.047    -483.628     126.393
  O     -339.591    -484.541     128.702
  H     -338.164    -483.930     126.670
  H     -339.750    -480.023     127.481
  H     -340.214    -481.178     126.213
  H     -338.514    -481.087     126.770
  H     -346.116    -483.517     133.413
  H     -346.120    -483.778     131.685
  H     -346.876    -482.352     132.355

 3  4  5  6  7  8  9  10  11  12  13  23  27  28  29  30  32 0
 6-311+G(2d,p)
 ****
 34  35 0
 6-311+G(2d,p)
 ****
 1  2  14  15  16  17  18  19  20  21  22  24  25  26 0
 3-21G
 ****
 31  33  36  37  38  39  40  41  42  43  44  45  46 0
 3-21G
 ****


