%nproc=1
%NoSave
%Mem=1900MB
#P OB98/GEN NMR

erre ene a

0 1
  C     -112.278     -27.264     -69.120
  O     -113.311     -27.375     -70.099
  P     -114.091     -28.768     -70.254
  C     -112.347     -29.931     -71.739
  O     -113.017     -29.939     -70.487
  C     -111.535     -31.212     -71.977
  O     -110.998     -31.241     -73.327
  C     -110.355     -31.398     -71.014
  O     -110.243     -32.803     -70.756
  C     -109.182     -30.909     -71.841
  O     -107.935     -31.360     -71.336
  C     -109.576     -31.444     -73.220
  N     -108.855     -30.789     -74.300
  C     -107.547     -31.209     -74.543
  O     -107.013     -32.026     -73.791
  N     -106.871     -30.670     -75.610
  C     -107.403     -29.691     -76.274
  N     -106.711     -29.197     -77.337
  C     -108.709     -29.100     -75.930
  C     -109.383     -29.709     -74.960
  O     -115.233     -28.760     -71.216
  O     -114.603     -29.055     -68.760
  H     -108.016     -32.305     -71.083
  H     -115.471     -29.503     -68.806
  H     -109.074     -28.233     -76.461
  H     -110.352     -29.356     -74.640
  H     -109.395     -32.525     -73.285
  H     -109.167     -29.812     -71.845
  H     -110.480     -30.869     -70.065
  H     -112.220     -32.065     -71.884
  H     -105.805     -29.596     -77.546
  H     -111.675     -29.069     -71.780
  H     -107.081     -28.470     -77.936
  H     -113.083     -29.779     -72.537
  P     -110.592     -33.353     -69.289
  C     -108.778     -32.031     -67.980
  O     -110.152     -32.238     -68.226
  O     -109.458     -34.473     -69.083
  O     -111.946     -33.959     -69.118
  H     -109.778     -35.130     -68.437
  H     -108.656     -31.074     -67.464
  H     -108.207     -31.997     -68.911
  H     -108.391     -32.828     -67.338
  H     -111.864     -26.278     -69.148
  H     -111.510     -27.979     -69.329
  H     -112.685     -27.452     -68.149

 3  4  5  6  7  8  9  10  11  12  13  23  27  28  29  30  32 0
 6-311+G(2d,p)
 ****
 34  35 0
 6-311+G(2d,p)
 ****
 1  2  14  15  16  17  18  19  20  21  22  24  25  26 0
 3-21G
 ****
 31  33  36  37  38  39  40  41  42  43  44  45  46 0
 3-21G
 ****


