%nproc=1
%NoSave
%Mem=1900MB
#P OB98/GEN NMR

erre ene a

0 1
  C     -730.368    1022.479    1608.179
  O     -730.270    1021.426    1607.241
  H     -729.612    1023.223    1607.947
  H     -730.204    1022.090    1609.181
  H     -731.359    1022.955    1608.115
  P     -731.406    1020.280    1607.287
  C     -730.125    1018.481    1608.677
  O     -731.180    1019.463    1608.643
  C     -729.775    1018.131    1610.124
  O     -730.998    1018.012    1610.900
  C     -728.996    1016.814    1610.255
  O     -728.014    1016.969    1611.281
  C     -730.051    1015.822    1610.711
  O     -729.490    1014.727    1611.428
  C     -730.990    1016.720    1611.537
  N     -732.335    1016.154    1611.624
  C     -732.532    1015.151    1612.586
  O     -731.580    1014.784    1613.300
  N     -733.770    1014.560    1612.676
  C     -734.694    1014.857    1611.826
  N     -735.884    1014.209    1611.935
  C     -734.503    1015.856    1610.749
  C     -733.314    1016.464    1610.714
  O     -730.939    1019.249    1606.148
  O     -732.805    1020.762    1607.083
  H     -730.214    1014.148    1611.733
  H     -731.703    1018.830    1605.728
  H     -735.305    1016.049    1610.052
  H     -733.079    1017.202    1609.953
  H     -730.589    1016.861    1612.560
  H     -730.577    1015.416    1609.844
  H     -728.502    1016.500    1609.334
  H     -729.190    1018.977    1610.564
  H     -735.957    1013.507    1612.687
  H     -729.250    1018.892    1608.176
  H     -736.648    1014.329    1611.304
  H     -730.465    1017.589    1608.126
  P     -726.529    1017.361    1610.816
  C     -726.020    1014.812    1610.782
  O     -725.857    1016.065    1610.133
  O     -725.721    1017.527    1612.201
  O     -726.469    1018.643    1610.014
  H     -725.528    1018.468    1612.376
  H     -725.524    1014.051    1610.217
  H     -727.062    1014.581    1610.854
  H     -725.597    1014.861    1611.764

 6  7  8  9  10  11  12  13  14  15  16  26  30  31  32  33  35 0
 6-311+G(2d,p)
 ****
 37  38 0
 6-311+G(2d,p)
 ****
 1  2  3  4  5  17  18  19  20  21  22  23  24  25 0
 3-21G
 ****
 27  28  29  34  36  39  40  41  42  43  44  45  46 0
 3-21G
 ****


