%nproc=1
%NoSave
%Mem=1900MB
#P OB98/GEN NMR

erre ene a

0 1
  C       30.062    -177.291    -212.035
  O       29.731    -177.946    -213.250
  P       30.683    -177.817    -214.533
  C       29.746    -179.687    -216.030
  O       29.811    -178.284    -215.798
  C       28.830    -179.998    -217.213
  O       27.480    -179.597    -216.874
  C       29.221    -179.263    -218.491
  O       28.963    -180.114    -219.610
  C       28.261    -178.086    -218.557
  O       28.068    -177.649    -219.912
  C       27.017    -178.674    -217.882
  N       24.871    -174.033    -218.356
  C       25.609    -174.772    -219.212
  N       26.168    -175.984    -219.010
  C       25.852    -176.455    -217.792
  C       25.102    -175.820    -216.815
  C       24.600    -174.547    -217.131
  N       23.835    -173.799    -216.261
  N       25.016    -176.603    -215.678
  C       25.681    -177.698    -215.977
  N       26.196    -177.662    -217.245
  O       32.005    -178.493    -214.408
  O       30.839    -176.244    -214.763
  H       27.457    -176.883    -219.884
  H       31.749    -176.030    -215.047
  H       25.780    -174.325    -220.189
  H       25.829    -178.536    -215.312
  H       26.396    -179.231    -218.594
  H       28.670    -177.246    -217.985
  H       30.269    -178.944    -218.496
  H       28.822    -181.083    -217.375
  H       29.348    -180.167    -215.130
  H       23.417    -172.954    -216.619
  H       23.491    -174.249    -215.424
  H       30.756    -180.074    -216.209
  P       30.250    -180.541    -220.483
  C       29.078    -182.627    -221.506
  O       29.650    -181.357    -221.723
  O       31.288    -181.224    -219.651
  O       30.700    -179.125    -221.085
  H       29.944    -178.498    -221.132
  H       28.763    -183.039    -222.473
  H       28.198    -182.541    -220.863
  H       29.807    -183.307    -221.054
  H       29.310    -177.496    -211.303
  H       30.118    -176.236    -212.202
  H       31.008    -177.647    -211.684

 3  4  5  6  7  8  9  10  11  12  22  25  29  30  31  32 0
 6-311+G(2d,p)
 ****
 33  36  37 0
 6-311+G(2d,p)
 ****
 1  2  13  14  15  16  17  18  19  20  21  23  24  26 0
 3-21G
 ****
 27  28  34  35  38  39  40  41  42  43  44  45  46  47  48 0
 3-21G
 ****


