%nproc=1
%NoSave
%Mem=1900MB
#P OB98/GEN NMR

erre ene a

0 1
  C     -261.263     151.108     102.786
  O     -260.826     150.270     101.717
  P     -260.161     150.980     100.444
  C     -262.619     151.629      99.792
  O     -261.248     151.982      99.813
  C     -263.359     152.360      98.652
  O     -263.069     153.779      98.756
  C     -262.940     151.959      97.241
  O     -263.958     152.370      96.326
  C     -261.704     152.807      97.033
  O     -261.365     152.919      95.653
  C     -262.084     154.128      97.741
  N     -260.935     154.817      98.369
  C     -260.005     155.444      97.544
  O     -260.082     155.457      96.314
  N     -258.940     156.031      98.170
  C     -258.738     156.094      99.516
  O     -257.721     156.556     100.022
  C     -259.814     155.541     100.346
  C     -260.839     154.926      99.748
  O     -260.047     149.798      99.370
  O     -258.837     151.611     100.727
  H     -262.194     153.165      95.185
  H     -259.120     149.500      99.297
  H     -258.229     156.434      97.579
  H     -259.722     155.628     101.424
  H     -261.635     154.495     100.349
  H     -262.544     154.832      97.038
  H     -260.849     152.343      97.539
  H     -262.732     150.893      97.113
  H     -264.440     152.233      98.787
  H     -263.083     151.866     100.755
  H     -262.722     150.545      99.653
  P     -264.912     151.238      95.706
  C     -263.456     150.852      93.622
  O     -263.973     150.292      94.815
  O     -266.160     151.721      95.041
  O     -265.238     150.315      96.974
  H     -266.038     149.777      96.798
  H     -262.495     150.379      93.397
  H     -263.308     151.933      93.718
  H     -264.154     150.653      92.799
  H     -261.683     150.505     103.563
  H     -262.003     151.791     102.424
  H     -260.430     151.657     103.172

 3  4  5  6  7  8  9  10  11  12  13  23  28  29  30  31  32 0
 6-311+G(2d,p)
 ****
 33  34 0
 6-311+G(2d,p)
 ****
 1  2  14  15  16  17  18  19  20  21  22  24  25  26  27 0
 3-21G
 ****
 35  36  37  38  39  40  41  42  43  44  45 0
 3-21G
 ****


