%nproc=1
%NoSave
%Mem=1900MB
#P OB98/GEN NMR

erre ene a

0 1
  C     -247.950    -596.952     433.116
  O     -246.998    -596.382     432.240
  P     -247.480    -595.533     430.973
  C     -246.272    -597.211     429.455
  O     -246.446    -595.831     429.769
  C     -245.972    -597.406     427.968
  O     -247.011    -596.750     427.184
  C     -244.622    -596.835     427.497
  O     -244.143    -597.692     426.457
  C     -245.016    -595.486     426.898
  O     -244.049    -594.979     425.992
  C     -246.348    -595.866     426.262
  N     -248.201    -592.718     422.674
  C     -247.336    -593.756     422.603
  N     -246.871    -594.532     423.600
  C     -247.401    -594.136     424.774
  C     -248.263    -593.081     425.019
  C     -248.697    -592.365     423.882
  N     -249.598    -591.321     423.937
  N     -248.538    -592.963     426.370
  C     -247.843    -593.928     426.941
  N     -247.186    -594.698     426.010
  O     -247.718    -594.078     431.224
  O     -248.822    -596.257     430.492
  H     -243.204    -594.883     426.456
  H     -249.594    -595.720     430.725
  H     -246.982    -593.999     421.614
  H     -247.766    -594.115     428.007
  H     -246.229    -596.401     425.309
  H     -245.150    -594.751     427.700
  H     -243.884    -596.741     428.299
  H     -246.032    -598.475     427.749
  H     -247.196    -597.736     429.712
  H     -249.930    -590.965     423.058
  H     -250.164    -591.212     424.775
  H     -245.455    -597.631     430.063
  P     -242.782    -598.524     426.665
  C     -241.420    -596.930     425.184
  O     -241.877    -598.250     425.373
  O     -242.961    -599.955     427.060
  O     -242.014    -597.681     427.806
  H     -241.316    -598.236     428.202
  H     -242.218    -596.318     424.750
  H     -240.569    -596.942     424.496
  H     -241.110    -596.491     426.135
  H     -247.444    -597.479     433.898
  H     -248.573    -597.632     432.573
  H     -248.553    -596.177     433.540

 3  4  5  6  7  8  9  10  11  12  22  25  29  30  31  32 0
 6-311+G(2d,p)
 ****
 33  36  37 0
 6-311+G(2d,p)
 ****
 1  2  13  14  15  16  17  18  19  20  21  23  24  26 0
 3-21G
 ****
 27  28  34  35  38  39  40  41  42  43  44  45  46  47  48 0
 3-21G
 ****


