%nproc=1
%NoSave
%Mem=1900MB
#P OB98/GEN NMR

erre ene a

0 1
  C      -54.996     -77.534      85.377
  O      -54.916     -76.314      86.091
  P      -55.122     -74.954      85.268
  C      -52.950     -74.497      83.900
  O      -54.250     -75.071      83.930
  C      -52.811     -73.599      82.669
  O      -53.300     -74.280      81.492
  C      -53.617     -72.311      82.761
  O      -52.963     -71.347      83.569
  C      -53.719     -71.906      81.297
  O      -52.539     -71.205      80.872
  C      -53.821     -73.276      80.595
  N      -55.181     -73.585      80.165
  C      -55.484     -73.284      78.840
  O      -54.674     -72.765      78.071
  N      -56.762     -73.560      78.440
  C      -57.763     -74.046      79.231
  O      -58.907     -74.221      78.828
  C      -57.393     -74.319      80.630
  C      -56.142     -74.073      81.027
  O      -54.343     -73.858      86.136
  O      -56.547     -74.574      85.045
  H      -52.655     -71.018      79.920
  H      -54.814     -73.004      86.092
  H      -56.995     -73.373      77.479
  H      -58.162     -74.704      81.286
  H      -55.853     -74.255      82.056
  H      -53.170     -73.296      79.712
  H      -54.569     -71.244      81.110
  H      -54.623     -72.525      83.144
  H      -51.747     -73.378      82.519
  H      -52.203     -75.294      83.861
  H      -52.793     -73.920      84.816
  P      -53.870     -70.550      84.629
  C      -54.286     -68.101      83.821
  O      -54.661     -69.460      83.762
  O      -52.748     -69.725      85.419
  O      -54.699     -71.452      85.480
  H      -52.001     -69.481      84.847
  H      -53.204     -67.989      83.929
  H      -54.787     -67.623      84.665
  H      -54.601     -67.609      82.897
  H      -54.840     -78.352      86.049
  H      -54.246     -77.551      84.614
  H      -55.963     -77.622      84.928

 3  4  5  6  7  8  9  10  11  12  13  23  28  29  30  31  32 0
 6-311+G(2d,p)
 ****
 33  34 0
 6-311+G(2d,p)
 ****
 1  2  14  15  16  17  18  19  20  21  22  24  25  26 0
 3-21G
 ****
 27  35  36  37  38  39  40  41  42  43  44  45 0
 3-21G
 ****


