%nproc=1
%NoSave
%Mem=1900MB
#P OB98/GEN NMR

erre ene a

0 1
  C      160.436     187.800    -209.651
  O      160.903     188.267    -210.923
  P      162.393     188.851    -211.015
  C      164.068     187.619    -209.446
  O      163.428     187.666    -210.713
  C      164.612     186.214    -209.165
  O      163.555     185.243    -209.030
  C      165.514     185.677    -210.267
  O      166.837     186.178    -210.147
  C      165.479     184.187    -209.975
  O      166.388     183.884    -208.890
  C      164.030     183.974    -209.527
  N      162.145     179.884    -211.970
  C      163.038     180.004    -210.964
  N      163.504     181.120    -210.377
  C      162.939     182.213    -210.926
  C      162.011     182.254    -211.959
  C      161.608     181.017    -212.491
  N      160.692     180.905    -213.514
  N      161.665     183.552    -212.260
  C      162.360     184.286    -211.412
  N      163.150     183.526    -210.593
  O      162.498     189.767    -209.703
  O      162.657     189.634    -212.253
  H      167.285     184.120    -209.197
  H      163.058     190.545    -209.886
  H      163.434     179.061    -210.575
  H      162.322     185.371    -211.350
  H      163.948     183.246    -208.707
  H      165.794     183.580    -210.829
  H      165.084     185.877    -211.263
  H      165.169     186.251    -208.217
  H      163.368     187.916    -208.662
  H      160.438     179.978    -213.823
  H      160.276     181.744    -213.886
  H      164.877     188.364    -209.427
  P      167.092     187.702    -210.591
  C      167.072     189.918    -209.220
  O      166.575     188.598    -209.359
  O      165.989     187.930    -211.729
  O      168.474     187.981    -211.071
  H      166.314     188.591    -212.380
  H      166.415     190.472    -208.552
  H      167.104     190.429    -210.190
  H      168.079     189.888    -208.789
  H      159.432     187.443    -209.749
  H      160.462     188.603    -208.945
  H      161.066     187.005    -209.310

 3  4  5  6  7  8  9  10  11  12  22  25  29  30  31  32 0
 6-311+G(2d,p)
 ****
 33  36  37 0
 6-311+G(2d,p)
 ****
 1  2  13  14  15  16  17  18  19  20  21  23  24  26 0
 3-21G
 ****
 27  28  34  35  38  39  40  41  42  43  44  45  46  47  48 0
 3-21G
 ****


