%nproc=1
%NoSave
%Mem=1900MB
#P OB98/GEN NMR

erre ene a

0 1
  C      202.848     198.314      87.698
  O      201.692     199.147      87.776
  P      201.903     200.578      88.475
  C      200.678     201.895      86.608
  O      200.712     201.539      87.981
  C      199.433     202.728      86.287
  O      198.241     201.884      86.271
  C      199.171     203.859      87.294
  O      198.616     204.953      86.549
  C      198.124     203.239      88.203
  O      197.435     204.192      88.998
  C      197.287     202.498      87.167
  N      192.530     201.612      88.791
  C      193.119     202.717      88.283
  N      194.399     202.874      87.877
  C      195.089     201.728      88.033
  C      194.624     200.525      88.541
  C      193.274     200.487      88.933
  N      192.669     199.377      89.473
  N      195.642     199.581      88.567
  C      196.710     200.241      88.151
  N      196.406     201.507      87.739
  O      203.201     201.162      87.747
  O      202.066     200.498      89.957
  H      198.076     204.813      89.397
  H      203.993     201.032      88.300
  H      192.482     203.591      88.193
  H      197.716     199.847      88.126
  H      196.665     203.178      86.573
  H      198.610     202.532      88.885
  H      200.067     204.200      87.815
  H      199.548     203.145      85.278
  H      200.680     200.995      85.988
  H      191.697     199.450      89.730
  H      193.192     198.523      89.606
  H      201.597     202.438      86.361
  P      199.606     205.905      85.720
  C      198.112     205.661      83.647
  O      198.679     206.558      84.584
  O      200.417     204.811      84.869
  O      200.466     206.820      86.519
  H      199.813     204.188      84.428
  H      197.445     206.220      82.989
  H      197.537     204.887      84.164
  H      198.904     205.202      83.048
  H      202.592     197.393      87.217
  H      203.210     198.113      88.685
  H      203.609     198.812      87.134

 3  4  5  6  7  8  9  10  11  12  22  25  29  30  31  32 0
 6-311+G(2d,p)
 ****
 33  36  37 0
 6-311+G(2d,p)
 ****
 1  2  13  14  15  16  17  18  19  20  21  23  24  26 0
 3-21G
 ****
 27  28  34  35  38  39  40  41  42  43  44  45  46  47  48 0
 3-21G
 ****


