%nproc=1
%NoSave
%Mem=1900MB
#P OB98/GEN NMR

erre ene a

0 1
  C     -130.058      -2.193      -4.857
  O     -129.024      -2.228      -3.897
  P     -129.177      -1.497      -2.482
  C     -130.612      -1.907      -0.381
  O     -130.491      -2.109      -1.785
  C     -131.988      -1.319      -0.045
  O     -131.975       0.109      -0.363
  C     -133.130      -1.973      -0.848
  O     -134.213      -2.455      -0.050
  C     -133.491      -0.893      -1.856
  O     -134.789      -1.030      -2.403
  C     -133.206       0.384      -1.060
  N     -133.111       1.566      -1.913
  C     -134.299       2.220      -2.224
  O     -135.408       1.877      -1.823
  N     -134.192       3.277      -3.084
  C     -133.063       3.665      -3.740
  O     -133.059       4.561      -4.574
  C     -131.846       2.911      -3.400
  C     -131.916       1.928      -2.501
  O     -129.143      -0.006      -2.524
  O     -128.004      -2.150      -1.608
  H     -134.842      -1.903      -2.837
  H     -128.061      -3.116      -1.504
  H     -135.045       3.761      -3.319
  H     -130.936       3.190      -3.913
  H     -131.035       1.355      -2.231
  H     -133.974       0.564      -0.306
  H     -132.784      -0.967      -2.692
  H     -132.777      -2.863      -1.380
  H     -132.146      -1.432       1.030
  H     -129.836      -1.209      -0.059
  H     -130.445      -2.852       0.146
  P     -135.237      -3.601      -0.489
  C     -134.952      -6.097      -1.163
  O     -134.399      -4.796      -1.143
  O     -136.408      -3.137      -1.290
  O     -135.723      -4.223       0.906
  H     -136.627      -4.572       0.810
  H     -134.135      -6.824      -1.150
  H     -135.525      -6.231      -2.084
  H     -135.598      -6.273      -0.299
  H     -129.756      -2.739      -5.726
  H     -130.261      -1.177      -5.126
  H     -130.941      -2.636      -4.446

 3  4  5  6  7  8  9  10  11  12  13  23  28  29  30  31  32 0
 6-311+G(2d,p)
 ****
 33  34 0
 6-311+G(2d,p)
 ****
 1  2  14  15  16  17  18  19  20  21  22  24  25  26  27 0
 3-21G
 ****
 35  36  37  38  39  40  41  42  43  44  45 0
 3-21G
 ****


