%nproc=1
%NoSave
%Mem=1900MB
#P OB98/GEN NMR

erre ene a

0 1
  C       80.304    -210.196     -38.055
  O       81.430    -209.842     -37.247
  P       81.778    -208.273     -37.169
  C       82.814    -208.189     -39.545
  O       81.808    -207.699     -38.669
  C       82.688    -207.576     -40.946
  O       81.490    -208.062     -41.621
  C       82.606    -206.042     -40.944
  O       83.275    -205.583     -42.128
  C       81.117    -205.788     -41.091
  O       80.853    -204.459     -41.537
  C       80.753    -206.901     -42.070
  N       76.259    -205.070     -43.473
  C       77.501    -204.465     -43.466
  N       77.563    -203.204     -43.947
  N       78.588    -205.046     -43.022
  C       78.377    -206.323     -42.608
  C       77.199    -207.035     -42.583
  C       76.001    -206.368     -43.044
  O       74.878    -206.858     -43.079
  N       77.397    -208.321     -42.116
  C       78.682    -208.345     -41.806
  N       79.332    -207.183     -42.132
  O       83.315    -208.263     -36.721
  O       80.916    -207.514     -36.212
  H       79.880    -204.336     -41.541
  H       83.386    -208.079     -35.766
  H       75.453    -204.566     -43.810
  H       79.197    -209.186     -41.363
  H       81.066    -206.669     -43.097
  H       80.609    -205.932     -40.127
  H       76.779    -202.715     -44.354
  H       83.034    -205.566     -40.056
  H       78.475    -202.750     -43.994
  H       83.556    -207.897     -41.541
  H       82.743    -209.277     -39.625
  H       83.799    -207.980     -39.111
  P       84.757    -204.990     -41.971
  C       83.946    -202.644     -42.719
  O       84.610    -203.412     -41.735
  O       85.348    -205.091     -43.456
  O       85.626    -205.724     -40.997
  H       86.291    -205.349     -43.419
  H       83.524    -201.756     -42.247
  H       83.137    -203.207     -43.198
  H       84.664    -202.330     -43.483
  H       80.168    -211.257     -38.032
  H       80.475    -209.880     -39.063
  H       79.427    -209.716     -37.674

 3  4  5  6  7  8  9  10  11  12  23  26  30  31 0
 6-311+G(2d,p)
 ****
 33  35  36  37  38 0
 6-311+G(2d,p)
 ****
 1  2  13  14  15  16  17  18  19  20  21  22  24  25 0
 3-21G
 ****
 27  28  29  32  34  39  40  41  42  43  44  45  46  47  48  49 0
 3-21G
 ****


