%nproc=1
%NoSave
%Mem=1900MB
#P OB98/GEN NMR

erre ene a

0 1
  C      -75.589     -91.498     107.397
  O      -75.778     -90.134     107.012
  P      -75.004     -89.624     105.699
  C      -76.516     -87.497     105.537
  O      -75.209     -88.031     105.660
  C      -77.163     -87.313     106.914
  O      -76.287     -86.514     107.767
  C      -78.533     -86.629     106.883
  O      -79.332     -87.252     107.901
  C      -78.211     -85.198     107.274
  O      -79.345     -84.515     107.785
  C      -77.082     -85.427     108.283
  N      -76.274     -84.232     108.510
  C      -76.360     -83.643     109.766
  O      -77.133     -84.036     110.636
  N      -75.560     -82.551     109.970
  C      -74.760     -81.959     109.037
  O      -74.062     -80.981     109.274
  C      -74.795     -82.559     107.694
  C      -75.541     -83.650     107.497
  O      -75.952     -90.176     104.539
  O      -73.589     -90.090     105.640
  H      -76.899     -90.139     104.760
  H      -79.062     -83.647     108.139
  H      -75.584     -82.127     110.885
  H      -74.220     -82.083     106.911
  H      -75.607     -84.102     106.516
  H      -77.491     -85.756     109.246
  H      -77.842     -84.649     106.399
  H      -79.032     -86.716     105.916
  H      -77.252     -88.301     107.380
  H      -77.139     -88.172     104.942
  H      -76.467     -86.547     104.992
  P      -80.252     -88.506     107.483
  C      -80.118     -89.195     110.004
  O      -80.891     -89.089     108.831
  O      -79.117     -89.580     107.128
  O      -81.186     -88.253     106.346
  H      -78.419     -89.631     107.801
  H      -80.786     -89.383     110.849
  H      -79.567     -88.271     110.199
  H      -79.419     -90.030     109.915
  H      -76.158     -91.701     108.280
  H      -74.552     -91.673     107.592
  H      -75.916     -92.140     106.606

 3  4  5  6  7  8  9  10  11  12  13  24  28  29  30  31  32 0
 6-311+G(2d,p)
 ****
 33  34 0
 6-311+G(2d,p)
 ****
 1  2  14  15  16  17  18  19  20  21  22  23  25  26  27 0
 3-21G
 ****
 35  36  37  38  39  40  41  42  43  44  45 0
 3-21G
 ****


