%nproc=1
%NoSave
%Mem=1900MB
#P OB98/GEN NMR

erre ene a

0 1
  C     -297.445    -295.061    1106.839
  O     -297.920    -296.369    1107.014
  P     -298.502    -297.130    1105.716
  C     -296.813    -299.084    1106.120
  O     -297.347    -298.131    1105.204
  C     -296.942    -300.486    1105.548
  O     -296.257    -300.598    1104.282
  C     -296.366    -301.593    1106.429
  O     -297.219    -301.857    1107.529
  C     -296.255    -302.717    1105.415
  O     -297.539    -303.335    1105.216
  C     -295.822    -301.973    1104.155
  N     -292.029    -303.903    1101.304
  C     -293.348    -304.105    1101.271
  N     -294.293    -303.582    1102.079
  C     -293.753    -302.740    1102.978
  C     -292.389    -302.457    1103.145
  C     -291.519    -303.074    1102.251
  N     -290.145    -302.875    1102.269
  N     -292.208    -301.583    1104.183
  C     -293.400    -301.328    1104.639
  N     -294.379    -302.002    1103.949
  O     -298.511    -295.979    1104.603
  O     -299.849    -297.756    1105.896
  H     -298.178    -302.624    1105.052
  H     -299.265    -296.089    1103.986
  H     -293.730    -304.784    1100.492
  H     -293.650    -300.687    1105.475
  H     -296.291    -302.365    1103.243
  H     -295.552    -303.510    1105.733
  H     -295.364    -301.306    1106.804
  H     -298.030    -300.667    1105.378
  H     -297.354    -299.023    1107.066
  H     -289.579    -303.466    1101.693
  H     -289.757    -302.366    1103.059
  H     -295.746    -298.833    1106.317
  P     -296.540    -301.849    1109.006
  C     -297.852    -299.732    1109.630
  O     -296.582    -300.309    1109.436
  O     -294.994    -302.086    1108.653
  O     -297.144    -302.815    1109.974
  H     -294.696    -301.487    1107.927
  H     -297.733    -298.711    1109.981
  H     -298.410    -300.301    1110.383
  H     -298.426    -299.733    1108.688
  H     -297.092    -294.682    1107.775
  H     -298.237    -294.439    1106.478
  H     -296.643    -295.064    1106.130

 3  4  5  6  7  8  9  10  11  12  22  25  29  30  31  32 0
 6-311+G(2d,p)
 ****
 33  36  37 0
 6-311+G(2d,p)
 ****
 1  2  13  14  15  16  17  18  19  20  21  23  24  26 0
 3-21G
 ****
 27  28  34  35  38  39  40  41  42  43  44  45  46  47  48 0
 3-21G
 ****


