%nproc=1
%NoSave
%Mem=1900MB
#P OB98/GEN NMR

erre ene a

0 1
  C       51.490    -387.691    -581.678
  O       50.142    -387.672    -582.128
  P       49.588    -388.989    -582.881
  C       47.457    -388.951    -581.392
  O       47.994    -388.996    -582.704
  C       45.934    -388.882    -581.413
  O       45.531    -387.560    -581.908
  C       45.248    -389.921    -582.323
  O       44.023    -390.283    -581.691
  C       45.019    -389.140    -583.594
  O       44.064    -389.728    -584.478
  C       44.618    -387.793    -583.001
  N       42.262    -383.652    -584.934
  C       41.928    -384.502    -583.918
  N       42.607    -385.572    -583.458
  C       43.753    -385.733    -584.160
  C       44.211    -384.981    -585.209
  C       43.406    -383.886    -585.602
  N       43.741    -383.033    -586.639
  N       45.425    -385.464    -585.677
  C       45.673    -386.517    -584.926
  N       44.718    -386.700    -583.985
  O       50.063    -390.187    -581.921
  O       50.075    -389.165    -584.282
  H       43.280    -390.015    -583.977
  H       50.360    -390.955    -582.430
  H       40.989    -384.296    -583.410
  H       46.535    -387.166    -585.034
  H       43.601    -387.789    -582.605
  H       45.941    -389.060    -584.157
  H       45.859    -390.826    -582.453
  H       45.565    -388.966    -580.376
  H       47.839    -388.061    -580.875
  H       43.017    -382.430    -586.973
  H       44.491    -383.340    -587.253
  H       47.805    -389.837    -580.827
  P       43.582    -391.826    -581.677
  C       42.622    -391.548    -579.290
  O       42.328    -391.874    -580.642
  O       44.742    -392.485    -580.774
  O       43.383    -392.476    -583.006
  H       44.877    -391.988    -579.946
  H       41.680    -391.509    -578.735
  H       43.119    -390.577    -579.226
  H       43.273    -392.330    -578.854
  H       51.720    -386.761    -581.201
  H       52.143    -387.834    -582.513
  H       51.622    -388.492    -580.981

 3  4  5  6  7  8  9  10  11  12  22  25  29  30  31  32 0
 6-311+G(2d,p)
 ****
 33  36  37 0
 6-311+G(2d,p)
 ****
 1  2  13  14  15  16  17  18  19  20  21  23  24  26 0
 3-21G
 ****
 27  28  34  35  38  39  40  41  42  43  44  45  46  47  48 0
 3-21G
 ****


