%nproc=1
%NoSave
%Mem=1900MB
#P OB98/GEN NMR

erre ene a

0 1
  C     -237.100      98.980     -61.947
  O     -237.858     100.165     -62.070
  H     -237.526      98.370     -61.149
  H     -236.066      99.225     -61.691
  H     -237.126      98.411     -62.881
  P     -237.473     101.159     -63.269
  C     -235.985     102.800     -61.897
  O     -236.044     101.786     -62.891
  C     -234.533     103.219     -61.671
  O     -234.050     103.895     -62.863
  C     -234.358     104.190     -60.494
  O     -233.128     103.897     -59.827
  C     -234.266     105.545     -61.174
  O     -233.596     106.529     -60.394
  C     -233.527     105.175     -62.461
  N     -233.712     106.170     -63.519
  C     -233.197     107.442     -63.302
  O     -232.538     107.773     -62.320
  N     -233.476     108.365     -64.282
  C     -234.217     108.154     -65.406
  O     -234.448     109.026     -66.229
  C     -234.739     106.787     -65.576
  C     -234.471     105.874     -64.638
  O     -238.477     102.390     -63.067
  O     -237.549     100.577     -64.641
  H     -239.300     102.246     -63.568
  H     -233.323     107.257     -60.994
  H     -233.109     109.297     -64.136
  H     -235.335     106.581     -66.455
  H     -234.851     104.864     -64.728
  H     -232.457     105.046     -62.260
  H     -235.271     105.920     -61.396
  H     -235.182     104.144     -59.779
  H     -233.916     102.322     -61.538
  H     -236.397     102.413     -60.961
  H     -236.582     103.656     -62.222
  P     -233.219     103.174     -58.393
  C     -233.465     105.287     -56.873
  O     -234.082     104.156     -57.460
  O     -231.721     103.337     -57.860
  O     -233.715     101.771     -58.482
  H     -231.308     104.182     -58.107
  H     -234.184     105.823     -56.289
  H     -233.084     105.925     -57.643
  H     -232.661     104.968     -56.244

 6  7  8  9  10  11  12  13  14  15  16  27  31  32  33  34  35 0
 6-311+G(2d,p)
 ****
 36  37 0
 6-311+G(2d,p)
 ****
 1  2  3  4  5  17  18  19  20  21  22  23  24  25 0
 3-21G
 ****
 26  28  29  30  38  39  40  41  42  43  44  45 0
 3-21G
 ****


