%nproc=1
%NoSave
%Mem=1900MB
#P OB98/GEN NMR

erre ene a

0 1
  C        9.000      -2.875     -44.498
  O        7.845      -3.029     -45.298
  H        9.868      -2.769     -45.154
  H        9.145      -3.757     -43.870
  H        8.924      -1.981     -43.873
  P        6.410      -3.051     -44.585
  C        5.260      -4.451     -42.750
  O        6.449      -4.224     -43.495
  C        5.269      -5.866     -42.178
  O        4.975      -6.826     -43.216
  C        6.613      -6.286     -41.596
  O        6.830      -5.696     -40.330
  C        6.456      -7.797     -41.576
  O        5.700      -8.221     -40.432
  C        5.671      -8.048     -42.882
  N        6.525      -8.487     -43.984
  C        6.275      -9.757     -44.496
  O        5.411     -10.508     -44.046
  N        7.078     -10.151     -45.533
  C        8.152      -9.464     -46.019
  O        8.895      -9.903     -46.890
  C        8.385      -8.141     -45.424
  C        7.573      -7.719     -44.452
  O        5.234      -3.078     -45.502
  O        6.418      -1.726     -43.684
  H        5.761      -9.196     -40.408
  H        5.859      -1.046     -44.104
  H        6.921     -11.073     -45.907
  H        9.218      -7.560     -45.793
  H        7.733      -6.749     -43.997
  H        4.901      -8.813     -42.721
  H        7.416      -8.312     -41.535
  H        7.421      -6.024     -42.289
  H        4.477      -5.936     -41.419
  H        4.399      -4.333     -43.416
  H        5.194      -3.707     -41.949
  P        8.322      -5.484     -39.793
  C       10.086      -6.841     -38.508
  O        8.778      -6.841     -39.070
  O        8.546      -4.240     -39.000
  O        9.207      -5.473     -41.126
  H        9.667      -4.615     -41.202
  H       10.280      -7.791     -38.056
  H       10.156      -6.072     -37.767
  H       10.805      -6.660     -39.279

 6  7  8  9  10  11  12  13  14  15  16  26  31  32  33  34  35 0
 6-311+G(2d,p)
 ****
 36  37 0
 6-311+G(2d,p)
 ****
 1  2  3  4  5  17  18  19  20  21  22  23  24  25 0
 3-21G
 ****
 27  28  29  30  38  39  40  41  42  43  44  45 0
 3-21G
 ****


