%nproc=1
%NoSave
%Mem=1900MB
#P OB98/GEN NMR

erre ene a

0 1
  C     -149.607     -17.599      60.678
  O     -149.873     -16.902      59.477
  H     -150.321     -17.271      61.438
  H     -148.595     -17.392      61.034
  H     -149.733     -18.675      60.523
  P     -148.804     -17.017      58.284
  C     -147.957     -14.600      58.621
  O     -147.628     -15.987      58.661
  C     -146.733     -13.737      58.939
  O     -146.243     -14.040      60.262
  C     -145.553     -13.982      58.012
  O     -145.755     -13.530      56.689
  C     -144.383     -13.441      58.821
  O     -144.184     -12.039      58.662
  C     -144.832     -13.743      60.272
  N     -144.054     -14.820      60.872
  C     -142.699     -14.563      61.048
  O     -142.157     -13.512      60.708
  N     -141.965     -15.579      61.595
  C     -142.436     -16.816      61.926
  O     -141.717     -17.701      62.374
  C     -143.872     -17.039      61.693
  C     -144.606     -16.046      61.183
  O     -149.349     -16.832      56.900
  O     -148.123     -18.445      58.521
  H     -144.872     -11.590      59.190
  H     -147.643     -18.748      57.714
  H     -140.983     -15.408      61.740
  H     -144.280     -18.009      61.940
  H     -145.668     -16.185      61.000
  H     -144.708     -12.851      60.899
  H     -143.446     -13.931      58.546
  H     -145.399     -15.065      57.938
  H     -147.038     -12.685      58.923
  H     -148.730     -14.420      59.375
  H     -148.358     -14.345      57.635
  P     -145.084     -14.222      55.416
  C     -143.216     -12.488      54.908
  O     -143.534     -13.796      55.370
  O     -145.870     -14.197      54.145
  O     -144.998     -15.760      55.898
  H     -145.132     -16.323      55.111
  H     -142.155     -12.349      54.933
  H     -143.686     -11.763      55.539
  H     -143.568     -12.369      53.905

 6  7  8  9  10  11  12  13  14  15  16  26  31  32  33  34  35 0
 6-311+G(2d,p)
 ****
 36  37 0
 6-311+G(2d,p)
 ****
 1  2  3  4  5  17  18  19  20  21  22  23  24  25 0
 3-21G
 ****
 27  28  29  30  38  39  40  41  42  43  44  45 0
 3-21G
 ****


