%nproc=1
%NoSave
%Mem=1900MB
#P OB98/GEN NMR

erre ene a

0 1
  C      -34.880     555.293     438.349
  O      -33.780     554.632     438.944
  H      -35.137     554.780     437.427
  H      -34.613     556.330     438.116
  H      -35.747     555.268     439.028
  P      -33.231     555.253     440.320
  C      -30.882     555.281     439.212
  O      -31.648     554.951     440.355
  C      -29.480     554.704     439.326
  O      -28.828     555.172     440.530
  C      -29.411     553.182     439.355
  O      -29.460     552.642     438.048
  C      -28.075     552.951     440.027
  O      -26.971     553.081     439.102
  C      -28.033     554.082     441.077
  N      -27.394     550.951     444.995
  C      -26.640     551.118     443.856
  N      -25.591     550.271     443.702
  N      -26.905     552.010     442.922
  C      -28.009     552.744     443.189
  C      -28.824     552.689     444.298
  C      -28.507     551.732     445.331
  O      -29.093     551.583     446.400
  N      -29.823     553.618     444.219
  C      -29.645     554.209     443.056
  N      -28.547     553.700     442.381
  O      -33.815     554.276     441.444
  O      -33.610     556.677     440.580
  H      -26.996     553.959     438.687
  H      -33.971     554.779     442.258
  H      -27.142     550.261     445.675
  H      -30.253     555.002     442.642
  H      -27.022     554.472     441.237
  H      -27.989     551.947     440.458
  H      -25.545     549.389     444.182
  H      -30.209     552.776     439.989
  H      -25.037     550.374     442.856
  H      -28.886     555.098     438.473
  H      -30.819     556.376     439.117
  H      -31.385     554.875     438.316
  P      -30.876     552.081     437.525
  C      -29.974     549.931     436.360
  O      -30.563     551.211     436.205
  O      -31.607     553.389     436.941
  O      -31.714     551.403     438.575
  H      -32.570     553.224     436.852
  H      -29.831     549.485     435.398
  H      -30.618     549.311     436.948
  H      -29.028     550.031     436.851

 6  7  8  9  10  11  12  13  14  15  26  29  33  34 0
 6-311+G(2d,p)
 ****
 36  38  39  40  41 0
 6-311+G(2d,p)
 ****
 1  2  3  4  5  16  17  18  19  20  21  22  23  24  25 0
 3-21G
 ****
 27  28  30  31  32  35  37  42  43  44  45  46  47 0
 3-21G
 ****
 48  49 0
 3-21G
 ****


