%nproc=1
%NoSave
%Mem=1900MB
#P OB98/GEN NMR

erre ene a

0 1
  C       77.337     -31.220       3.198
  O       77.879     -30.564       4.328
  P       79.151     -29.604       4.171
  C       80.906     -31.444       4.542
  O       80.380     -30.481       3.635
  C       82.113     -32.150       3.932
  O       81.709     -33.012       2.842
  C       83.143     -31.208       3.327
  O       83.886     -30.526       4.319
  C       83.949     -32.172       2.467
  O       84.904     -32.890       3.262
  C       82.849     -33.126       1.955
  N       82.478     -32.858       0.575
  C       83.449     -33.145      -0.389
  O       84.571     -33.522      -0.052
  N       83.122     -32.988      -1.714
  C       81.979     -32.471      -2.039
  N       81.687     -32.395      -3.365
  C       80.992     -32.003      -1.043
  C       81.294     -32.247       0.231
  O       79.459     -28.756       5.360
  O       78.792     -28.690       2.904
  H       78.936     -27.753       3.141
  H       84.403     -33.306       3.991
  H       80.083     -31.518      -1.365
  H       80.619     -31.959       1.030
  H       83.184     -34.167       2.036
  H       84.507     -31.659       1.677
  H       82.640     -30.478       2.682
  H       82.573     -32.773       4.711
  H       82.380     -32.742      -4.017
  H       80.125     -32.176       4.766
  H       80.733     -32.322      -3.710
  H       81.184     -30.944       5.476
  P       84.175     -28.968       4.066
  C       86.584     -29.376       3.208
  O       85.296     -28.867       2.928
  O       84.942     -28.514       5.397
  O       82.955     -28.139       3.833
  H       84.680     -27.605       5.633
  H       87.103     -29.553       2.264
  H       86.531     -30.317       3.763
  H       87.148     -28.641       3.788
  H       76.498     -31.813       3.498
  H       78.082     -31.852       2.761
  H       77.021     -30.492       2.480

 3  4  5  6  7  8  9  10  11  12  13  24  27  28  29  30  32 0
 6-311+G(2d,p)
 ****
 34  35 0
 6-311+G(2d,p)
 ****
 1  2  14  15  16  17  18  19  20  21  22  23  25  26 0
 3-21G
 ****
 31  33  36  37  38  39  40  41  42  43  44  45  46 0
 3-21G
 ****


