%nproc=1
%NoSave
%Mem=1900MB
#P OB98/GEN NMR

erre ene a

0 1
  C      230.307     182.236     381.725
  O      230.282     181.755     380.375
  P      230.450     182.735     379.116
  C      229.153     181.421     377.319
  O      230.431     181.857     377.772
  C      229.262     180.572     376.046
  O      229.734     181.368     374.941
  C      230.218     179.391     376.154
  O      229.614     178.321     376.854
  C      230.517     179.112     374.684
  O      229.457     178.340     374.094
  C      230.541     180.530     374.093
  N      234.933     180.278     371.484
  C      233.758     179.625     371.340
  N      232.634     179.744     372.079
  C      232.796     180.669     373.041
  C      233.937     181.412     373.312
  C      235.047     181.188     372.482
  N      236.248     181.840     372.639
  N      233.733     182.240     374.394
  C      232.487     182.021     374.758
  N      231.879     181.077     373.975
  O      231.609     183.670     379.219
  O      229.072     183.549     379.046
  H      229.661     178.245     373.147
  H      229.225     184.420     378.639
  H      233.714     178.912     370.522
  H      231.982     182.513     375.577
  H      230.085     180.560     373.096
  H      231.448     178.558     374.538
  H      231.142     179.701     376.658
  H      228.253     180.222     375.790
  H      228.536     182.305     377.118
  H      237.006     181.599     372.022
  H      236.356     182.485     373.408
  H      228.680     180.837     378.116
  P      230.476     177.441     377.880
  C      229.357     175.172     377.448
  O      229.539     176.234     378.368
  O      231.150     178.203     378.973
  O      231.543     176.703     376.944
  H      232.357     176.536     377.452
  H      228.603     175.460     376.709
  H      229.004     174.293     377.995
  H      230.295     174.927     376.942
  H      230.177     181.415     382.399
  H      229.516     182.942     381.867
  H      231.247     182.710     381.917

 3  4  5  6  7  8  9  10  11  12  22  25  29  30  31  32 0
 6-311+G(2d,p)
 ****
 33  36  37 0
 6-311+G(2d,p)
 ****
 1  2  13  14  15  16  17  18  19  20  21  23  24  26 0
 3-21G
 ****
 27  28  34  35  38  39  40  41  42  43  44  45  46  47  48 0
 3-21G
 ****


