%nproc=1
%NoSave
%Mem=1900MB
#P OB98/GEN NMR

erre ene a

0 1
  C      105.450    -369.270    -434.758
  O      104.970    -370.342    -435.545
  H      105.004    -368.341    -435.123
  H      106.537    -369.191    -434.839
  H      105.164    -369.407    -433.711
  P      105.485    -371.820    -435.207
  C      103.243    -372.763    -436.072
  O      104.660    -372.805    -436.167
  C      102.618    -373.385    -437.314
  O      103.270    -374.629    -437.637
  C      101.130    -373.701    -437.167
  O      100.353    -372.531    -437.371
  C      100.958    -374.734    -438.268
  O      100.912    -374.077    -439.549
  C      102.256    -375.547    -438.135
  N       99.730    -379.784    -436.972
  C       99.479    -378.842    -437.951
  N       98.372    -379.038    -438.698
  N      100.235    -377.794    -438.163
  C      101.265    -377.696    -437.295
  C      101.607    -378.555    -436.276
  C      100.796    -379.740    -436.084
  O      100.991    -380.608    -435.241
  N      102.681    -378.090    -435.560
  C      103.013    -376.969    -436.173
  N      102.174    -376.677    -437.223
  O      105.454    -372.220    -433.763
  O      106.964    -371.866    -435.813
  H      100.644    -374.752    -440.197
  H      107.627    -371.619    -435.142
  H       99.099    -380.559    -436.846
  H      103.847    -376.335    -435.901
  H      102.607    -375.934    -439.098
  H      100.044    -375.319    -438.170
  H       97.623    -379.647    -438.394
  H      100.908    -374.177    -436.206
  H       98.142    -378.332    -439.385
  H      102.792    -372.703    -438.156
  H      102.947    -371.712    -435.981
  H      102.906    -373.301    -435.181
  P       99.062    -372.228    -436.467
  C       99.527    -369.775    -437.136
  O       98.547    -370.789    -436.949
  O       99.281    -372.349    -434.997
  O       97.936    -373.204    -437.035
  H       97.931    -374.096    -436.606
  H       99.050    -368.872    -437.456
  H      100.229    -370.090    -437.880
  H      100.040    -369.600    -436.213

 6  7  8  9  10  11  12  13  14  15  26  29  33  34 0
 6-311+G(2d,p)
 ****
 36  38  39  40  41 0
 6-311+G(2d,p)
 ****
 1  2  3  4  5  16  17  18  19  20  21  22  23  24  25 0
 3-21G
 ****
 27  28  30  31  32  35  37  42  43  44  45  46  47 0
 3-21G
 ****
 48  49 0
 3-21G
 ****


