%nproc=1
%NoSave
%Mem=1900MB
#P OB98/GEN NMR

erre ene a

0 1
  C      -49.633      76.634      57.523
  O      -50.598      77.668      57.402
  P      -51.571      78.039      58.626
  C      -53.411      76.787      59.914
  O      -52.514      76.754      58.809
  C      -54.840      76.524      59.439
  O      -55.317      77.705      58.752
  C      -55.010      75.378      58.437
  O      -55.120      74.092      59.025
  C      -56.346      75.759      57.803
  O      -57.428      75.380      58.678
  C      -56.244      77.284      57.716
  N      -57.603      79.319      53.216
  C      -58.319      79.010      54.325
  N      -57.885      78.452      55.478
  C      -56.555      78.253      55.437
  C      -55.697      78.521      54.380
  C      -56.271      79.081      53.224
  N      -55.535      79.416      52.106
  N      -54.399      78.159      54.703
  C      -54.482      77.698      55.934
  N      -55.760      77.739      56.423
  O      -52.271      79.345      58.485
  O      -50.627      77.976      59.914
  H      -57.194      74.511      59.056
  H      -51.051      78.437      60.667
  H      -59.382      79.235      54.278
  H      -53.647      77.318      56.508
  H      -57.201      77.784      57.913
  H      -56.518      75.257      56.844
  H      -54.228      75.400      57.667
  H      -55.477      76.366      60.321
  H      -53.363      77.781      60.370
  H      -56.009      79.929      51.377
  H      -54.528      79.390      52.172
  H      -53.102      76.048      60.663
  P      -54.154      72.938      58.450
  C      -53.524      72.273      55.998
  O      -54.458      72.863      56.877
  O      -54.230      71.643      59.185
  O      -52.705      73.626      58.515
  H      -52.578      74.376      57.910
  H      -53.986      72.177      55.010
  H      -53.235      71.280      56.344
  H      -52.637      72.911      55.910
  H      -49.090      76.544      56.605
  H      -50.126      75.709      57.738
  H      -48.955      76.870      58.317

 3  4  5  6  7  8  9  10  11  12  22  25  29  30  31  32 0
 6-311+G(2d,p)
 ****
 33  36  37 0
 6-311+G(2d,p)
 ****
 1  2  13  14  15  16  17  18  19  20  21  23  24  26 0
 3-21G
 ****
 27  28  34  35  38  39  40  41  42  43  44  45  46  47  48 0
 3-21G
 ****


