%nproc=1
%NoSave
%Mem=1900MB
#P OB98/GEN NMR

erre ene a

0 1
  C     -476.186      60.452      53.213
  O     -474.986      60.105      52.511
  P     -474.890      60.448      50.946
  C     -475.602      58.170      49.930
  O     -475.959      59.536      50.165
  C     -476.761      57.419      49.258
  O     -477.317      58.253      48.209
  C     -476.366      56.097      48.573
  O     -476.399      54.903      49.352
  C     -477.480      55.967      47.534
  O     -478.650      55.384      48.130
  C     -477.771      57.406      47.124
  N     -478.548      59.090      42.346
  C     -479.411      58.800      43.355
  N     -479.112      58.356      44.598
  C     -477.792      58.229      44.764
  C     -476.797      58.501      43.830
  C     -477.213      58.946      42.573
  N     -476.354      59.229      41.533
  N     -475.536      58.252      44.364
  C     -475.781      57.826      45.597
  N     -477.122      57.804      45.888
  O     -473.518      60.474      50.366
  O     -475.573      61.903      50.863
  H     -479.386      55.584      47.531
  H     -475.093      62.449      50.212
  H     -480.456      58.945      43.129
  H     -475.016      57.504      46.292
  H     -478.846      57.594      46.995
  H     -477.189      55.309      46.704
  H     -475.406      56.193      48.075
  H     -477.561      57.225      50.003
  H     -475.366      57.699      50.884
  H     -476.740      59.506      40.647
  H     -475.361      59.075      41.667
  H     -474.699      58.173      49.336
  P     -475.045      54.112      49.698
  C     -475.636      52.290      47.893
  O     -474.699      53.229      48.405
  O     -475.091      53.330      50.983
  O     -473.939      55.257      49.660
  H     -473.763      55.634      48.772
  H     -475.306      51.974      46.903
  H     -476.631      52.736      47.821
  H     -475.666      51.426      48.559
  H     -476.096      60.161      54.239
  H     -477.018      59.945      52.770
  H     -476.340      61.509      53.154

 3  4  5  6  7  8  9  10  11  12  22  25  29  30  31  32 0
 6-311+G(2d,p)
 ****
 33  36  37 0
 6-311+G(2d,p)
 ****
 1  2  13  14  15  16  17  18  19  20  21  23  24  26 0
 3-21G
 ****
 27  28  34  35  38  39  40  41  42  43  44  45  46  47  48 0
 3-21G
 ****


