%nproc=1
%NoSave
%Mem=1900MB
#P OB98/GEN NMR

erre ene a

0 1
  C      316.039     266.559      86.072
  O      314.769     266.198      85.532
  P      313.437     267.063      85.697
  C      313.577     269.673      85.498
  O      313.606     268.412      84.852
  C      313.202     270.829      84.553
  O      314.081     270.817      83.400
  C      311.780     270.641      84.018
  O      310.670     271.063      84.783
  C      311.820     271.224      82.612
  O      311.401     272.590      82.573
  C      313.296     271.109      82.225
  N      313.572     270.029      77.229
  C      313.217     271.212      77.851
  N      312.842     272.229      77.042
  N      313.220     271.378      79.144
  C      313.529     270.261      79.836
  C      313.878     269.025      79.338
  C      313.932     268.870      77.900
  O      314.253     267.845      77.299
  N      314.108     268.123      80.344
  C      313.877     268.800      81.448
  N      313.528     270.107      81.193
  O      312.922     267.199      87.089
  O      312.344     266.224      84.855
  H      310.572     272.663      83.075
  H      311.484     266.355      85.304
  H      313.579     269.964      76.227
  H      313.949     268.402      82.454
  H      313.677     272.055      81.826
  H      311.142     270.673      81.948
  H      312.706     272.127      76.049
  H      311.631     269.562      83.879
  H      312.375     273.017      77.495
  H      313.356     271.794      85.038
  H      314.571     269.837      85.922
  H      312.882     269.646      86.338
  P      309.805     270.154      85.780
  C      309.960     269.314      88.196
  O      310.622     270.001      87.145
  O      309.901     268.687      85.145
  O      308.378     270.571      85.939
  H      309.212     268.108      85.517
  H      310.466     269.537      89.140
  H      310.006     268.237      88.015
  H      308.915     269.628      88.269
  H      316.760     265.811      85.818
  H      315.965     266.636      87.137
  H      316.344     267.501      85.666

 3  4  5  6  7  8  9  10  11  12  23  26  30  31 0
 6-311+G(2d,p)
 ****
 33  35  36  37  38 0
 6-311+G(2d,p)
 ****
 1  2  13  14  15  16  17  18  19  20  21  22  24  25 0
 3-21G
 ****
 27  28  29  32  34  39  40  41  42  43  44  45  46  47  48  49 0
 3-21G
 ****


