%nproc=1
%NoSave
%Mem=1900MB
#P OB98/GEN NMR

erre ene a

0 1
  C     -288.257    -170.027    -313.360
  O     -287.853    -171.312    -313.789
  H     -288.620    -169.471    -314.232
  H     -287.421    -169.483    -312.922
  H     -289.074    -170.110    -312.640
  P     -287.172    -172.293    -312.716
  C     -284.862    -172.138    -313.888
  O     -285.621    -171.861    -312.715
  C     -283.472    -172.651    -313.503
  O     -282.766    -171.684    -312.699
  C     -283.468    -173.934    -312.668
  O     -283.780    -175.097    -313.413
  C     -282.027    -173.918    -312.184
  O     -281.154    -174.332    -313.247
  C     -281.826    -172.419    -311.861
  N     -282.054    -172.102    -310.451
  C     -280.912    -171.841    -309.678
  O     -279.791    -171.885    -310.182
  N     -281.068    -171.570    -308.336
  C     -282.251    -171.583    -307.809
  N     -282.344    -171.363    -306.467
  C     -283.486    -171.840    -308.585
  C     -283.315    -172.085    -309.885
  O     -287.428    -173.755    -312.896
  O     -287.660    -171.730    -311.296
  H     -281.465    -175.208    -313.548
  H     -287.272    -172.312    -310.598
  H     -284.446    -171.838    -308.093
  H     -284.165    -172.298    -310.520
  H     -280.823    -172.087    -312.141
  H     -281.850    -174.592    -311.337
  H     -284.131    -173.832    -311.800
  H     -282.896    -172.776    -314.435
  H     -281.478    -171.234    -305.960
  H     -284.792    -171.220    -314.474
  H     -283.175    -171.620    -305.945
  H     -285.361    -172.907    -314.487
  P     -284.494    -176.314    -312.644
  C     -282.192    -177.408    -312.105
  O     -283.414    -176.893    -311.606
  O     -284.583    -177.449    -313.775
  O     -285.828    -176.002    -312.032
  H     -285.447    -177.419    -314.230
  H     -281.590    -177.751    -311.290
  H     -281.670    -176.638    -312.635
  H     -282.393    -178.224    -312.768

 6  7  8  9  10  11  12  13  14  15  16  26  30  31  32  33  35 0
 6-311+G(2d,p)
 ****
 37  38 0
 6-311+G(2d,p)
 ****
 1  2  3  4  5  17  18  19  20  21  22  23  24  25 0
 3-21G
 ****
 27  28  29  34  36  39  40  41  42  43  44  45  46 0
 3-21G
 ****


