%nproc=1
%NoSave
%Mem=1900MB
#P OB98/GEN NMR

erre ene a

0 1
  C     -407.153      51.689    -206.632
  O     -406.125      51.847    -205.675
  H     -407.712      52.626    -206.700
  H     -407.838      50.892    -206.335
  H     -406.725      51.466    -207.614
  P     -405.228      50.572    -205.303
  C     -406.180      50.300    -202.914
  O     -406.049      49.734    -204.209
  C     -407.398      49.716    -202.184
  O     -408.611      50.192    -202.841
  C     -407.448      48.176    -202.193
  O     -408.120      47.768    -200.998
  C     -408.311      47.915    -203.410
  O     -408.770      46.586    -203.440
  C     -409.355      49.025    -203.257
  N     -410.102      49.265    -204.482
  C     -411.217      48.449    -204.691
  O     -411.514      47.575    -203.878
  N     -411.949      48.621    -205.840
  C     -411.565      49.484    -206.726
  N     -412.324      49.592    -207.847
  C     -410.358      50.325    -206.571
  C     -409.684      50.169    -205.429
  O     -403.811      50.861    -204.936
  O     -405.313      49.646    -206.606
  H     -409.136      46.319    -202.568
  H     -404.480      49.701    -207.107
  H     -410.069      51.016    -207.349
  H     -408.785      50.740    -205.223
  H     -410.063      48.787    -202.455
  H     -407.735      48.063    -204.328
  H     -406.457      47.718    -202.249
  H     -407.415      50.105    -201.162
  H     -413.136      48.988    -207.920
  H     -406.303      51.380    -203.037
  H     -412.116      50.216    -208.614
  H     -405.276      50.111    -202.326
  P     -407.436      46.830    -199.888
  C     -409.346      45.096    -199.955
  O     -407.942      45.322    -200.082
  O     -407.568      47.341    -198.491
  O     -405.893      46.758    -200.310
  H     -405.345      46.652    -199.506
  H     -409.555      44.057    -200.105
  H     -409.868      45.674    -200.688
  H     -409.667      45.387    -198.977

 6  7  8  9  10  11  12  13  14  15  16  26  30  31  32  33  35 0
 6-311+G(2d,p)
 ****
 37  38 0
 6-311+G(2d,p)
 ****
 1  2  3  4  5  17  18  19  20  21  22  23  24  25 0
 3-21G
 ****
 27  28  29  34  36  39  40  41  42  43  44  45  46 0
 3-21G
 ****


