%nproc=1
%NoSave
%Mem=1900MB
#P OB98/GEN NMR

erre ene a

0 1
  C      923.355     588.722     -51.685
  O      923.952     589.671     -50.793
  P      923.802     591.236     -51.104
  C      925.872     591.883     -49.698
  O      924.468     592.053     -49.888
  C      926.334     592.591     -48.428
  O      926.252     594.019     -48.553
  C      925.483     592.256     -47.206
  O      925.796     590.940     -46.735
  C      925.840     593.376     -46.263
  O      927.096     593.103     -45.571
  C      926.036     594.557     -47.226
  N      924.922     595.500     -47.215
  C      924.906     596.415     -46.141
  O      925.789     596.375     -45.271
  N      923.891     597.354     -46.084
  C      922.977     597.362     -47.011
  N      922.005     598.302     -46.904
  C      922.967     596.414     -48.134
  C      923.955     595.508     -48.169
  O      922.435     591.684     -51.505
  O      924.865     591.471     -52.295
  H      926.996     592.220     -45.152
  H      924.541     592.203     -52.853
  H      922.175     596.464     -48.895
  H      924.005     594.780     -48.967
  H      926.953     595.131     -46.972
  H      925.094     593.539     -45.489
  H      924.415     592.318     -47.465
  H      927.376     592.321     -48.246
  H      922.044     598.946     -46.113
  H      926.409     592.278     -50.555
  H      921.279     598.429     -47.598
  H      926.082     590.803     -49.660
  P      924.559     590.042     -46.211
  C      925.789     588.947     -44.214
  O      925.179     588.747     -45.466
  O      923.979     589.423     -47.580
  O      923.503     590.787     -45.451
  H      923.011     589.328     -47.507
  H      925.864     587.979     -43.712
  H      925.220     589.628     -43.579
  H      926.799     589.347     -44.354
  H      923.549     587.730     -51.333
  H      923.772     588.841     -52.663
  H      922.298     588.886     -51.725

 3  4  5  6  7  8  9  10  11  12  13  23  27  28  29  30  32 0
 6-311+G(2d,p)
 ****
 34  35 0
 6-311+G(2d,p)
 ****
 1  2  14  15  16  17  18  19  20  21  22  24  25  26 0
 3-21G
 ****
 31  33  36  37  38  39  40  41  42  43  44  45  46 0
 3-21G
 ****


