%nproc=1
%NoSave
%Mem=1900MB
#P OB98/GEN NMR

erre ene a

0 1
  C     -214.034      13.236     162.050
  O     -212.854      13.601     162.733
  H     -214.221      13.969     161.261
  H     -214.890      13.232     162.731
  H     -213.918      12.251     161.590
  P     -212.422      12.745     164.021
  C     -213.241      12.704     166.480
  O     -213.379      13.289     165.194
  C     -214.195      13.368     167.470
  O     -215.564      13.257     167.024
  C     -214.195      12.760     168.869
  O     -213.045      13.098     169.629
  C     -215.463      13.383     169.429
  O     -215.214      14.757     169.772
  C     -216.410      13.279     168.209
  N     -217.264      12.093     168.248
  C     -218.641      12.313     168.383
  O     -219.084      13.459     168.462
  N     -219.482      11.229     168.463
  C     -218.990      10.030     168.429
  N     -219.862       8.991     168.560
  C     -217.550       9.751     168.269
  C     -216.752      10.814     168.192
  O     -210.964      12.725     164.344
  O     -213.037      11.290     163.755
  H     -215.138      15.250     168.934
  H     -212.786      10.717     164.521
  H     -217.194       8.732     168.257
  H     -215.679      10.690     168.090
  H     -217.046      14.170     168.132
  H     -215.829      12.883     170.330
  H     -214.327      11.674     168.824
  H     -213.952      14.439     167.494
  H     -220.836       9.221     168.710
  H     -212.201      12.822     166.798
  H     -219.542       8.064     168.821
  H     -213.479      11.636     166.436
  P     -212.531      12.037     170.723
  C     -213.350      11.276     173.077
  O     -213.601      12.056     171.919
  O     -211.252      12.764     171.347
  O     -212.220      10.669     170.204
  H     -210.431      12.480     170.900
  H     -214.154      11.400     173.772
  H     -212.435      11.595     173.530
  H     -213.272      10.245     172.802

 6  7  8  9  10  11  12  13  14  15  16  26  30  31  32  33  35 0
 6-311+G(2d,p)
 ****
 37  38 0
 6-311+G(2d,p)
 ****
 1  2  3  4  5  17  18  19  20  21  22  23  24  25 0
 3-21G
 ****
 27  28  29  34  36  39  40  41  42  43  44  45  46 0
 3-21G
 ****


