%nproc=1
%NoSave
%Mem=1900MB
#P OB98/GEN NMR

erre ene a

0 1
  C      241.713     848.389     884.083
  O      241.666     848.560     885.487
  H      242.452     847.615     883.854
  H      242.002     849.320     883.588
  H      240.732     848.058     883.716
  P      240.663     849.682     886.039
  C      240.708     848.207     888.166
  O      240.724     849.526     887.635
  C      241.880     848.006     889.127
  O      241.930     849.081     890.088
  C      241.815     846.703     889.932
  O      242.325     845.622     889.182
  C      242.733     847.048     891.107
  O      244.094     846.877     890.712
  C      242.438     848.553     891.337
  N      241.788     850.517     896.035
  C      242.892     850.214     895.341
  N      243.013     849.643     894.117
  C      241.788     849.385     893.609
  C      240.558     849.642     894.209
  C      240.586     850.244     895.482
  N      239.445     850.547     896.204
  N      239.518     849.242     893.394
  C      240.114     848.815     892.296
  N      241.483     848.850     892.386
  O      239.296     849.689     885.432
  O      241.521     851.017     885.795
  H      244.238     847.415     889.905
  H      242.457     850.862     886.016
  H      243.840     850.464     895.832
  H      239.589     848.480     891.393
  H      243.351     849.105     891.581
  H      242.557     846.417     891.982
  H      240.800     846.521     890.317
  H      242.816     848.050     888.540
  H      240.771     847.463     887.339
  H      239.559     850.776     897.172
  H      238.557     850.216     895.833
  H      239.758     848.062     888.687
  P      241.508     844.238     889.055
  C      243.375     843.648     887.380
  O      242.563     843.182     888.472
  O      240.213     844.347     888.333
  O      241.344     843.754     890.581
  H      240.626     843.078     890.634
  H      244.039     842.868     887.071
  H      243.945     844.497     887.696
  H      242.745     843.926     886.561

 6  7  8  9  10  11  12  13  14  15  25  28  32  33  34  35 0
 6-311+G(2d,p)
 ****
 36  39  40 0
 6-311+G(2d,p)
 ****
 1  2  3  4  5  16  17  18  19  20  21  22  23  24 0
 3-21G
 ****
 26  27  29  30  31  37  38  41  42  43  44  45  46  47 0
 3-21G
 ****
 48 0
 3-21G
 ****


