%nproc=1
%NoSave
%Mem=1900MB
#P OB98/GEN NMR

erre ene a

0 1
  C       61.493     341.624      11.293
  O       61.318     341.710      12.691
  H       60.663     341.050      10.873
  H       62.427     341.108      11.058
  H       61.494     342.619      10.840
  P       62.329     342.615      13.544
  C       63.690     340.630      14.467
  O       62.829     341.719      14.776
  C       63.906     339.770      15.709
  O       64.689     340.489      16.687
  C       62.615     339.375      16.418
  O       61.948     338.348      15.714
  C       63.160     338.977      17.782
  O       63.725     337.657      17.748
  C       64.269     340.036      17.994
  N       63.833     341.157      18.827
  C       64.172     341.087      20.175
  O       64.796     340.148      20.667
  N       63.724     342.120      20.956
  C       62.914     343.138      20.544
  O       62.357     343.915      21.314
  C       62.652     343.201      19.098
  C       63.103     342.215      18.322
  O       61.831     343.974      13.910
  O       63.632     342.700      12.615
  H       63.643     343.560      12.154
  H       64.065     337.479      18.647
  H       63.922     342.055      21.944
  H       62.067     344.031      18.722
  H       62.898     342.223      17.256
  H       65.148     339.581      18.469
  H       62.388     338.975      18.554
  H       61.969     340.251      16.538
  H       64.474     338.878      15.413
  H       64.651     341.034      14.131
  H       63.247     340.041      13.658
  P       60.615     338.648      14.881
  C       58.813     337.693      16.431
  O       59.544     337.507      15.228
  O       60.820     338.880      13.419
  O       59.995     339.950      15.584
  H       59.835     340.633      14.904
  H       58.131     336.879      16.564
  H       58.266     338.611      16.378
  H       59.491     337.729      17.258

 6  7  8  9  10  11  12  13  14  15  16  27  31  32  33  34  35 0
 6-311+G(2d,p)
 ****
 36  37 0
 6-311+G(2d,p)
 ****
 1  2  3  4  5  17  18  19  20  21  22  23  24  25 0
 3-21G
 ****
 26  28  29  30  38  39  40  41  42  43  44  45 0
 3-21G
 ****


