%nproc=1
%NoSave
%Mem=1900MB
#P OB98/GEN NMR

erre ene a

0 1
  C      218.200      42.386     488.567
  O      217.469      42.657     489.771
  P      216.817      41.488     490.652
  C      217.305      43.093     492.612
  O      216.442      42.082     492.099
  C      217.076      43.328     494.105
  O      215.727      43.772     494.356
  C      217.277      42.094     494.980
  O      218.654      41.853     495.195
  C      216.490      42.472     496.229
  O      217.269      43.333     497.076
  C      215.304      43.246     495.630
  N      210.436      42.636     497.072
  C      211.358      43.569     497.389
  N      212.636      43.659     496.962
  C      212.929      42.661     496.108
  C      212.089      41.637     495.699
  C      210.782      41.642     496.224
  N      209.850      40.680     495.915
  N      212.745      40.782     494.840
  C      213.955      41.301     494.717
  N      214.116      42.434     495.460
  O      217.628      40.231     490.702
  O      215.389      41.212     489.984
  H      217.422      44.165     496.592
  H      215.124      40.288     490.139
  H      211.029      44.345     498.071
  H      214.746      40.884     494.095
  H      215.028      44.106     496.247
  H      216.192      41.607     496.826
  H      216.812      41.218     494.510
  H      217.752      44.136     494.428
  H      217.114      44.024     492.062
  H      208.944      40.735     496.359
  H      210.117      39.911     495.317
  H      218.345      42.793     492.433
  P      219.451      40.818     494.269
  C      221.618      42.170     494.505
  O      220.999      40.913     494.668
  O      219.173      40.918     492.802
  O      219.023      39.386     494.840
  H      219.049      38.729     494.122
  H      221.886      42.305     493.454
  H      222.531      42.194     495.112
  H      220.958      42.977     494.820
  H      218.544      43.307     488.144
  H      217.562      41.888     487.867
  H      219.039      41.761     488.792

 3  4  5  6  7  8  9  10  11  12  22  25  29  30  31  32 0
 6-311+G(2d,p)
 ****
 33  36  37 0
 6-311+G(2d,p)
 ****
 1  2  13  14  15  16  17  18  19  20  21  23  24  26 0
 3-21G
 ****
 27  28  34  35  38  39  40  41  42  43  44  45  46  47  48 0
 3-21G
 ****


