%nproc=1
%NoSave
%Mem=1900MB
#P OB98/GEN NMR

erre ene a

0 1
  C     -512.895    1062.269    -226.383
  O     -511.509    1062.390    -226.130
  H     -513.326    1061.456    -225.787
  H     -513.385    1063.200    -226.112
  H     -513.062    1062.071    -227.448
  P     -510.624    1061.078    -226.363
  C     -509.665    1061.100    -223.955
  O     -509.388    1061.165    -225.344
  C     -508.384    1060.900    -223.156
  O     -507.832    1059.597    -223.409
  C     -507.253    1061.873    -223.503
  O     -507.441    1063.136    -222.881
  C     -506.053    1061.135    -222.927
  O     -505.983    1061.355    -221.497
  C     -506.395    1059.667    -223.211
  N     -501.886    1058.363    -225.302
  C     -502.205    1058.902    -224.086
  N     -503.411    1059.230    -223.608
  C     -504.365    1058.944    -224.499
  C     -504.206    1058.407    -225.773
  C     -502.894    1058.123    -226.173
  N     -502.579    1057.593    -227.404
  N     -505.421    1058.239    -226.406
  C     -506.314    1058.669    -225.542
  N     -505.724    1059.116    -224.371
  O     -509.946    1061.318    -227.788
  O     -511.379    1059.782    -226.332
  H     -506.240    1062.291    -221.349
  H     -509.882    1060.473    -228.261
  H     -501.346    1059.082    -223.432
  H     -507.379    1058.683    -225.694
  H     -506.167    1059.029    -222.353
  H     -505.098    1061.462    -223.342
  H     -507.137    1061.974    -224.603
  H     -508.622    1060.966    -222.085
  H     -510.345    1060.266    -223.743
  H     -501.648    1057.229    -227.560
  H     -503.342    1057.404    -228.058
  H     -510.151    1062.031    -223.656
  P     -507.849    1064.380    -223.822
  C     -505.411    1065.249    -223.647
  O     -506.807    1065.538    -223.487
  O     -509.212    1064.897    -223.149
  O     -508.044    1064.044    -225.261
  H     -509.756    1065.358    -223.817
  H     -504.836    1066.113    -223.388
  H     -505.216    1064.983    -224.665
  H     -505.140    1064.435    -223.008

 6  7  8  9  10  11  12  13  14  15  25  28  32  33  34  35 0
 6-311+G(2d,p)
 ****
 36  39  40 0
 6-311+G(2d,p)
 ****
 1  2  3  4  5  16  17  18  19  20  21  22  23  24 0
 3-21G
 ****
 26  27  29  30  31  37  38  41  42  43  44  45  46  47  48 0
 3-21G
 ****


