%nproc=1
%NoSave
%Mem=1900MB
#P OB98/GEN NMR

erre ene a

0 1
  C     -572.875     -89.557    -258.873
  O     -571.786     -88.734    -258.492
  P     -570.561     -89.451    -257.736
  C     -569.734     -87.089    -256.982
  O     -570.054     -88.422    -256.617
  C     -569.800     -86.188    -255.750
  O     -571.167     -85.999    -255.338
  C     -569.058     -86.735    -254.536
  O     -567.673     -86.462    -254.636
  C     -569.755     -85.998    -253.395
  O     -569.227     -84.661    -253.252
  C     -571.211     -85.961    -253.883
  N     -574.957     -87.189    -250.719
  C     -574.259     -86.008    -250.849
  N     -574.644     -84.989    -250.053
  N     -573.271     -85.831    -251.689
  C     -572.983     -86.943    -252.415
  C     -573.596     -88.173    -252.364
  C     -574.717     -88.334    -251.468
  O     -575.433     -89.329    -251.389
  N     -573.010     -89.059    -253.232
  C     -572.073     -88.348    -253.832
  N     -572.028     -87.054    -253.383
  O     -569.402     -89.435    -258.837
  O     -570.852     -90.826    -257.223
  H     -569.659     -84.227    -252.494
  H     -569.345     -90.298    -259.291
  H     -575.720     -87.257    -250.067
  H     -571.419     -88.717    -254.602
  H     -571.715     -85.027    -253.600
  H     -569.613     -86.495    -252.433
  H     -575.380     -85.054    -249.365
  H     -569.233     -87.814    -254.436
  H     -574.139     -84.113    -250.129
  H     -569.400     -85.203    -256.031
  H     -570.459     -86.740    -257.725
  H     -568.733     -87.070    -257.425
  P     -566.656     -87.646    -254.278
  C     -565.008     -85.903    -253.290
  O     -565.705     -87.115    -253.105
  O     -565.694     -87.707    -255.561
  O     -567.304     -88.964    -254.025
  H     -565.445     -88.634    -255.738
  H     -564.856     -85.426    -252.317
  H     -565.558     -85.214    -253.942
  H     -564.028     -86.110    -253.739
  H     -573.617     -88.962    -259.363
  H     -573.300     -90.012    -258.003
  H     -572.530     -90.318    -259.541

 3  4  5  6  7  8  9  10  11  12  23  26  30  31 0
 6-311+G(2d,p)
 ****
 33  35  36  37  38 0
 6-311+G(2d,p)
 ****
 1  2  13  14  15  16  17  18  19  20  21  22  24  25 0
 3-21G
 ****
 27  28  29  32  34  39  40  41  42  43  44  45  46  47  48  49 0
 3-21G
 ****


