%nproc=1
%NoSave
%Mem=1900MB
#P OB98/GEN NMR

erre ene a

0 1
  C      -58.069      97.517    -760.900
  O      -59.261      96.765    -760.999
  P      -59.983      96.564    -762.414
  C      -61.543      98.578    -762.157
  O      -60.488      98.003    -762.917
  C      -62.876      97.890    -762.455
  O      -63.919      98.527    -761.667
  C      -63.317      97.942    -763.929
  O      -64.011      96.717    -764.196
  C      -64.292      99.099    -763.950
  O      -65.174      99.061    -765.057
  C      -64.963      98.909    -762.597
  N      -69.225     101.728    -762.817
  C      -68.862     100.594    -763.456
  N      -67.703      99.917    -763.359
  C      -66.862     100.523    -762.500
  C      -67.090     101.704    -761.801
  C      -68.346     102.312    -761.974
  N      -68.745     103.448    -761.306
  N      -65.964     102.045    -761.058
  C      -65.095     101.079    -761.309
  N      -65.615     100.120    -762.126
  O      -61.019      95.487    -762.446
  O      -58.774      96.222    -763.413
  H      -65.952      99.606    -764.857
  H      -58.787      95.274    -763.634
  H      -69.610     100.166    -764.132
  H      -64.082     101.041    -760.932
  H      -65.711      98.106    -762.611
  H      -63.744     100.045    -763.991
  H      -62.478      98.064    -764.629
  H      -62.806      96.851    -762.114
  H      -61.617      99.635    -762.428
  H      -69.720     103.721    -761.404
  H      -68.227     103.737    -760.484
  H      -61.314      98.505    -761.090
  P      -63.710      95.898    -765.542
  C      -65.506      97.183    -766.835
  O      -64.130      96.853    -766.762
  O      -64.262      94.515    -765.589
  O      -62.105      95.899    -765.627
  H      -61.807      95.196    -766.246
  H      -66.058      96.351    -767.304
  H      -65.628      98.081    -767.448
  H      -65.927      97.372    -765.841
  H      -57.743      97.536    -759.881
  H      -58.249      98.517    -761.236
  H      -57.312      97.067    -761.508

 3  4  5  6  7  8  9  10  11  12  22  25  29  30  31  32 0
 6-311+G(2d,p)
 ****
 33  36  37 0
 6-311+G(2d,p)
 ****
 1  2  13  14  15  16  17  18  19  20  21  23  24  26 0
 3-21G
 ****
 27  28  34  35  38  39  40  41  42  43  44  45  46  47  48 0
 3-21G
 ****


