%nproc=1
%NoSave
%Mem=1900MB
#P OB98/GEN NMR

erre ene a

0 1
  C     -197.637     196.898    -135.228
  O     -196.980     197.701    -136.195
  P     -196.884     199.277    -135.888
  C     -194.362     199.616    -136.472
  O     -195.718     199.844    -136.826
  C     -193.474     199.776    -137.707
  O     -193.589     198.619    -138.560
  C     -193.818     200.981    -138.573
  O     -193.242     202.158    -138.039
  C     -193.232     200.565    -139.918
  O     -191.814     200.808    -139.959
  C     -193.535     199.060    -139.946
  N     -195.531     196.476    -143.805
  C     -194.208     196.749    -143.506
  N     -193.284     196.215    -144.336
  N     -193.827     197.473    -142.489
  C     -194.859     197.951    -141.755
  C     -196.207     197.763    -141.957
  C     -196.612     196.920    -143.058
  O     -197.764     196.568    -143.305
  N     -196.953     198.429    -141.017
  C     -196.055     198.985    -140.233
  N     -194.770     198.709    -140.622
  O     -196.265     199.321    -134.418
  O     -198.177     200.023    -135.994
  H     -191.647     201.758    -139.827
  H     -196.965     199.454    -133.750
  H     -195.762     195.898    -144.592
  H     -196.282     199.577    -139.357
  H     -192.735     198.487    -140.432
  H     -193.670     201.125    -140.750
  H     -193.504     195.669    -145.153
  H     -194.907     201.089    -138.662
  H     -192.310     196.407    -144.135
  H     -192.432     199.835    -137.367
  H     -194.256     198.601    -136.083
  H     -194.071     200.327    -135.692
  P     -193.440     203.519    -138.864
  C     -195.102     204.797    -137.330
  O     -193.777     204.672    -137.803
  O     -194.831     203.286    -139.626
  O     -192.341     203.831    -139.821
  H     -194.795     203.703    -140.506
  H     -195.078     205.200    -136.316
  H     -195.622     203.834    -137.319
  H     -195.648     205.491    -137.975
  H     -197.633     195.877    -135.549
  H     -198.647     197.232    -135.114
  H     -197.127     196.979    -134.291

 3  4  5  6  7  8  9  10  11  12  23  26  30  31 0
 6-311+G(2d,p)
 ****
 33  35  36  37  38 0
 6-311+G(2d,p)
 ****
 1  2  13  14  15  16  17  18  19  20  21  22  24  25 0
 3-21G
 ****
 27  28  29  32  34  39  40  41  42  43  44  45  46  47  48  49 0
 3-21G
 ****


