%nproc=1
%NoSave
%Mem=1900MB
#P OB98/GEN NMR

erre ene a

0 1
  C     -143.807     181.901     486.888
  O     -144.099     181.243     488.105
  H     -144.548     181.599     486.142
  H     -142.815     181.621     486.531
  H     -143.866     182.986     487.018
  P     -143.121     181.463     489.355
  C     -143.331     183.915     490.134
  O     -143.803     182.580     490.285
  C     -144.356     184.901     490.705
  O     -145.426     185.040     489.738
  C     -144.965     184.417     492.032
  O     -144.868     185.380     493.077
  C     -146.357     183.947     491.625
  O     -147.318     183.991     492.660
  C     -146.680     184.829     490.414
  N     -147.664     184.248     489.505
  C     -149.008     184.513     489.760
  O     -149.426     185.220     490.676
  N     -149.903     183.937     488.894
  C     -149.592     183.134     487.838
  O     -150.437     182.651     487.091
  C     -148.159     182.871     487.630
  C     -147.274     183.430     488.462
  O     -141.689     181.719     489.017
  O     -143.291     180.123     490.218
  H     -147.326     184.903     493.020
  H     -142.523     179.542     490.067
  H     -150.874     184.130     489.065
  H     -147.880     182.230     486.808
  H     -146.209     183.258     488.336
  H     -147.059     185.801     490.735
  H     -146.288     182.902     491.298
  H     -144.403     183.559     492.427
  H     -143.879     185.884     490.815
  H     -143.181     184.100     489.066
  H     -142.373     184.031     490.655
  P     -144.698     185.028     494.627
  C     -142.093     184.731     494.555
  O     -143.215     185.433     495.068
  O     -145.185     183.679     495.036
  O     -145.628     186.125     495.359
  H     -145.985     185.696     496.162
  H     -141.195     185.145     494.964
  H     -142.073     184.820     493.489
  H     -142.164     183.698     494.825

 6  7  8  9  10  11  12  13  14  15  16  26  31  32  33  34  35 0
 6-311+G(2d,p)
 ****
 36  37 0
 6-311+G(2d,p)
 ****
 1  2  3  4  5  17  18  19  20  21  22  23  24  25 0
 3-21G
 ****
 27  28  29  30  38  39  40  41  42  43  44  45 0
 3-21G
 ****


