%nproc=1
%NoSave
%Mem=1900MB
#P OB98/GEN NMR

erre ene a

0 1
  C      -67.009     186.744     211.889
  O      -66.947     188.053     212.417
  H      -67.846     186.690     211.186
  H      -67.179     186.026     212.695
  H      -66.085     186.501     211.357
  P      -65.671     188.401     213.332
  C      -65.232     188.222     215.915
  O      -66.054     187.897     214.805
  C      -66.078     188.389     217.175
  O      -66.945     189.536     217.005
  C      -66.960     187.181     217.495
  O      -67.007     187.013     218.913
  C      -68.326     187.588     216.974
  O      -69.377     186.877     217.627
  C      -68.307     189.105     217.216
  N      -69.235     189.818     216.338
  C      -70.498     190.112     216.861
  O      -70.792     189.754     218.005
  N      -71.411     190.762     216.072
  C      -71.115     191.035     214.836
  N      -72.069     191.660     214.099
  C      -69.815     190.695     214.226
  C      -68.928     190.106     215.026
  O      -65.770     189.996     213.434
  O      -64.375     187.894     212.794
  H      -69.386     187.149     218.572
  H      -66.676     190.322     213.560
  H      -69.620     190.927     213.189
  H      -67.946     189.830     214.660
  H      -68.571     189.331     218.255
  H      -68.396     187.378     215.897
  H      -66.614     186.257     217.028
  H      -65.410     188.623     218.014
  H      -72.955     191.857     214.549
  H      -64.680     189.146     215.719
  H      -71.966     191.872     213.117
  H      -64.505     187.413     216.048
  P      -66.473     185.649     219.559
  C      -67.455     183.470     220.535
  O      -67.730     184.700     219.882
  O      -65.492     185.795     220.673
  O      -65.797     184.900     218.307
  H      -64.989     184.453     218.624
  H      -68.369     182.937     220.691
  H      -66.990     183.664     221.479
  H      -66.799     182.883     219.927

 6  7  8  9  10  11  12  13  14  15  16  26  30  31  32  33  35 0
 6-311+G(2d,p)
 ****
 37  38 0
 6-311+G(2d,p)
 ****
 1  2  3  4  5  17  18  19  20  21  22  23  24  25 0
 3-21G
 ****
 27  28  29  34  36  39  40  41  42  43  44  45  46 0
 3-21G
 ****


