%nproc=1
%NoSave
%Mem=1900MB
#P OB98/GEN NMR

erre ene a

0 1
  C      786.268     390.866    -332.164
  O      786.259     392.125    -332.802
  H      785.841     390.978    -331.163
  H      787.291     390.502    -332.067
  H      785.667     390.143    -332.720
  P      786.675     392.212    -334.345
  C      784.416     393.277    -334.991
  O      785.319     392.199    -335.200
  C      784.640     394.353    -336.058
  O      784.328     393.813    -337.373
  C      783.749     395.576    -335.896
  O      784.198     396.416    -334.847
  C      783.837     396.181    -337.287
  O      785.034     396.962    -337.435
  C      783.895     394.926    -338.187
  N      782.600     394.641    -338.813
  C      781.914     395.727    -339.336
  O      782.354     396.885    -339.290
  N      780.679     395.460    -339.848
  C      780.030     394.271    -339.767
  O      778.826     394.138    -340.019
  C      780.817     393.136    -339.263
  C      782.048     393.373    -338.807
  O      787.714     391.238    -334.788
  O      787.186     393.727    -334.514
  H      788.158     393.739    -334.518
  H      784.948     397.417    -338.299
  H      780.150     396.264    -340.194
  H      780.357     392.155    -339.245
  H      782.638     392.567    -338.390
  H      784.643     395.052    -338.979
  H      782.981     396.832    -337.506
  H      782.715     395.256    -335.713
  H      785.705     394.638    -336.052
  H      784.617     393.716    -334.003
  H      783.395     392.905    -335.026
  P      783.240     397.568    -334.275
  C      782.704     396.235    -332.142
  O      782.177     396.885    -333.291
  O      782.654     398.476    -335.302
  O      784.181     398.376    -333.258
  H      784.114     399.340    -333.475
  H      781.902     395.821    -331.567
  H      783.241     396.943    -331.546
  H      783.366     395.451    -332.447

 6  7  8  9  10  11  12  13  14  15  16  27  31  32  33  34  35 0
 6-311+G(2d,p)
 ****
 36  37 0
 6-311+G(2d,p)
 ****
 1  2  3  4  5  17  18  19  20  21  22  23  24  25 0
 3-21G
 ****
 26  28  29  30  38  39  40  41  42  43  44  45 0
 3-21G
 ****


