%nproc=1
%NoSave
%Mem=1900MB
#P OB98/GEN NMR

erre ene a

0 1
  C       58.994     -64.347      -9.964
  O       59.643     -63.960      -8.771
  H       59.458     -65.266     -10.333
  H       59.111     -63.569     -10.722
  H       57.932     -64.539      -9.790
  P       58.992     -62.800      -7.877
  C       61.361     -61.973      -7.278
  O       60.095     -62.388      -6.787
  C       62.380     -61.882      -6.140
  O       62.026     -60.749      -5.289
  C       62.429     -63.133      -5.239
  O       63.777     -63.271      -4.773
  C       61.502     -62.717      -4.114
  O       61.622     -63.560      -2.998
  C       61.933     -61.259      -3.943
  N       61.013     -60.468      -3.136
  C       61.403     -59.177      -2.802
  O       62.459     -58.664      -3.165
  N       60.530     -58.478      -2.011
  C       59.340     -58.937      -1.531
  O       58.585     -58.260      -0.844
  C       58.995     -60.321      -1.895
  C       59.833     -61.012      -2.669
  O       57.637     -63.090      -7.326
  O       58.971     -61.535      -8.858
  H       58.085     -61.446      -9.257
  H       62.561     -63.800      -2.848
  H       60.797     -57.539      -1.759
  H       58.067     -60.723      -1.512
  H       59.614     -62.036      -2.955
  H       62.935     -61.199      -3.507
  H       60.459     -62.777      -4.440
  H       62.126     -64.045      -5.760
  H       63.367     -61.662      -6.565
  H       61.241     -60.992      -7.748
  H       61.706     -62.688      -8.033
  P       64.874     -64.187      -5.506
  C       65.950     -65.565      -3.611
  O       66.093     -64.465      -4.498
  O       65.312     -63.651      -6.830
  O       64.185     -65.621      -5.680
  H       64.476     -66.016      -6.523
  H       66.822     -65.643      -2.997
  H       65.830     -66.466      -4.176
  H       65.090     -65.415      -2.992

 6  7  8  9  10  11  12  13  14  15  16  27  31  32  33  34  35 0
 6-311+G(2d,p)
 ****
 36  37 0
 6-311+G(2d,p)
 ****
 1  2  3  4  5  17  18  19  20  21  22  23  24  25 0
 3-21G
 ****
 26  28  29  30  38  39  40  41  42  43  44  45 0
 3-21G
 ****


