%nproc=1
%NoSave
%Mem=1900MB
#P OB98/GEN NMR

erre ene a

0 1
  C      -10.127      21.854     -45.412
  O      -11.510      22.112     -45.555
  H       -9.642      21.990     -46.382
  H       -9.968      20.824     -45.080
  H       -9.684      22.550     -44.695
  P      -12.408      21.940     -44.236
  C      -13.301      24.350     -43.889
  O      -13.577      23.035     -44.347
  C      -14.395      25.312     -44.341
  O      -14.194      25.704     -45.717
  C      -15.807      24.746     -44.250
  O      -16.322      24.863     -42.935
  C      -16.543      25.626     -45.251
  O      -16.899      26.898     -44.673
  C      -15.494      25.802     -46.357
  N      -14.411      24.895     -51.203
  C      -14.106      25.981     -50.410
  N      -13.461      27.002     -51.016
  N      -14.413      26.067     -49.144
  C      -15.085      24.985     -48.684
  C      -15.431      23.841     -49.364
  C      -15.057      23.748     -50.759
  O      -15.240      22.785     -51.497
  N      -16.091      22.959     -48.549
  C      -16.178      23.584     -47.390
  N      -15.597      24.825     -47.427
  O      -11.475      22.519     -43.070
  O      -12.853      20.548     -43.942
  H      -17.538      26.756     -43.955
  H      -11.676      22.050     -42.238
  H      -14.131      24.880     -52.168
  H      -16.649      23.184     -46.503
  H      -15.551      26.791     -46.826
  H      -17.474      25.164     -45.585
  H      -13.501      27.135     -52.018
  H      -15.831      23.705     -44.594
  H      -13.254      27.813     -50.448
  H      -14.306      26.220     -43.730
  H      -12.341      24.677     -44.303
  H      -13.234      24.343     -42.796
  P      -16.658      23.507     -42.143
  C      -15.596      24.214     -39.876
  O      -16.784      23.908     -40.595
  O      -15.282      22.694     -42.201
  O      -17.798      22.725     -42.702
  H      -15.440      21.754     -41.994
  H      -15.844      24.460     -38.865
  H      -15.106      25.047     -40.335
  H      -14.944      23.366     -39.887

 6  7  8  9  10  11  12  13  14  15  26  29  33  34 0
 6-311+G(2d,p)
 ****
 36  38  39  40  41 0
 6-311+G(2d,p)
 ****
 1  2  3  4  5  16  17  18  19  20  21  22  23  24  25 0
 3-21G
 ****
 27  28  30  31  32  35  37  42  43  44  45  46  47 0
 3-21G
 ****
 48  49 0
 3-21G
 ****


