%nproc=1
%NoSave
%Mem=1900MB
#P OB98/GEN NMR

erre ene a

0 1
  C       53.440    -106.424    -122.698
  O       52.389    -106.983    -121.935
  H       53.014    -105.957    -123.590
  H       54.142    -107.201    -123.012
  H       53.966    -105.659    -122.122
  P       52.761    -107.735    -120.570
  C       52.002    -107.462    -118.117
  O       52.128    -106.848    -119.393
  C       52.734    -106.634    -117.066
  O       54.157    -106.693    -117.279
  C       52.353    -105.155    -117.068
  O       51.136    -104.954    -116.369
  C       53.557    -104.561    -116.357
  O       53.455    -104.807    -114.941
  C       54.710    -105.387    -116.957
  N       56.757    -101.253    -119.059
  C       56.210    -101.432    -117.802
  N       56.164    -100.338    -117.010
  N       55.733    -102.570    -117.372
  C       55.782    -103.555    -118.298
  C       56.283    -103.495    -119.579
  C       56.860    -102.244    -120.025
  O       57.370    -102.048    -121.125
  N       56.101    -104.679    -120.247
  C       55.524    -105.463    -119.357
  N       55.295    -104.825    -118.164
  O       54.210    -108.063    -120.366
  O       51.843    -109.043    -120.583
  H       54.143    -104.264    -114.514
  H       52.313    -109.800    -120.978
  H       57.090    -100.346    -119.338
  H       55.255    -106.500    -119.527
  H       55.526    -105.542    -116.244
  H       53.652    -103.484    -116.495
  H       56.248     -99.402    -117.387
  H       52.315    -104.747    -118.084
  H       55.723    -100.437    -116.106
  H       52.536    -107.087    -116.086
  H       52.440    -108.464    -118.188
  H       50.948    -107.558    -117.842
  P       50.201    -103.685    -116.682
  C       47.795    -103.122    -115.924
  O       48.725    -104.144    -116.257
  O       50.313    -103.152    -118.070
  O       50.572    -102.624    -115.550
  H       51.326    -102.032    -115.795
  H       46.857    -103.565    -115.661
  H       47.661    -102.474    -116.765
  H       48.167    -102.557    -115.095

 6  7  8  9  10  11  12  13  14  15  26  29  33  34 0
 6-311+G(2d,p)
 ****
 36  38  39  40  41 0
 6-311+G(2d,p)
 ****
 1  2  3  4  5  16  17  18  19  20  21  22  23  24  25 0
 3-21G
 ****
 27  28  30  31  32  35  37  42  43  44  45  46  47 0
 3-21G
 ****
 48  49 0
 3-21G
 ****


