%nproc=1
%NoSave
%Mem=1900MB
#P OB98/GEN NMR

erre ene a

0 1
  C     -543.247     606.277    -320.695
  O     -543.429     604.930    -320.305
  H     -543.086     606.884    -319.800
  H     -544.134     606.644    -321.214
  H     -542.371     606.367    -321.344
  P     -543.790     603.891    -321.472
  C     -545.102     602.660    -319.582
  O     -544.201     602.554    -320.675
  C     -545.329     601.284    -318.961
  O     -545.660     600.313    -319.983
  C     -544.121     600.709    -318.234
  O     -543.917     601.268    -316.950
  C     -544.536     599.249    -318.152
  O     -545.547     599.092    -317.139
  C     -545.117     599.032    -319.564
  N     -544.124     598.555    -320.528
  C     -543.695     597.226    -320.388
  O     -544.143     596.515    -319.483
  N     -542.737     596.746    -321.246
  C     -542.264     597.511    -322.177
  N     -541.316     596.977    -322.997
  C     -542.693     598.908    -322.375
  C     -543.613     599.357    -321.525
  O     -542.364     603.505    -322.086
  O     -544.792     604.355    -322.476
  H     -545.825     598.160    -317.165
  H     -542.460     602.756    -322.722
  H     -542.257     599.509    -323.163
  H     -543.980     600.377    -321.609
  H     -545.952     598.317    -319.538
  H     -543.717     598.579    -317.888
  H     -543.211     600.780    -318.845
  H     -546.198     601.362    -318.290
  H     -541.001     596.037    -322.803
  H     -546.048     603.069    -319.953
  H     -540.780     597.533    -323.658
  H     -544.694     603.336    -318.824
  P     -542.572     602.124    -316.726
  C     -542.158     600.610    -314.655
  O     -542.142     601.920    -315.199
  O     -543.091     603.633    -316.768
  O     -541.491     601.876    -317.738
  H     -542.419     604.225    -317.165
  H     -541.846     600.645    -313.632
  H     -541.490     599.985    -315.210
  H     -543.150     600.212    -314.713

 6  7  8  9  10  11  12  13  14  15  16  26  30  31  32  33  35 0
 6-311+G(2d,p)
 ****
 37  38 0
 6-311+G(2d,p)
 ****
 1  2  3  4  5  17  18  19  20  21  22  23  24  25 0
 3-21G
 ****
 27  28  29  34  36  39  40  41  42  43  44  45  46 0
 3-21G
 ****


