%nproc=1
%NoSave
%Mem=1900MB
#P OB98/GEN NMR

erre ene a

0 1
  C       -2.439       1.618      11.498
  O       -3.073       2.651      10.737
  P       -3.314       2.380       9.175
  C       -1.103       3.471       8.364
  O       -1.889       2.292       8.441
  C       -0.210       3.469       7.115
  O        0.482       4.741       6.971
  C        0.867       2.380       7.135
  O        1.137       1.990       5.783
  C        2.074       3.120       7.676
  O        3.291       2.433       7.383
  C        1.899       4.472       6.988
  N        6.088       7.279       6.929
  C        5.695       6.247       6.098
  N        6.528       5.943       5.080
  N        4.584       5.576       6.252
  C        3.835       6.017       7.292
  C        4.119       7.020       8.189
  C        5.363       7.738       8.022
  O        5.768       8.650       8.735
  N        3.121       7.154       9.121
  C        2.242       6.227       8.791
  N        2.612       5.537       7.668
  O       -3.912       3.774       8.658
  O       -4.252       1.253       8.894
  H        3.129       1.476       7.531
  H       -4.861       3.672       8.463
  H        6.959       7.755       6.771
  H        1.328       6.015       9.326
  H        2.257       4.461       5.951
  H        1.992       3.221       8.766
  H        7.373       6.454       4.875
  H        0.614       1.494       7.723
  H        6.244       5.219       4.432
  H       -0.846       3.343       6.231
  H       -0.477       3.566       9.256
  H       -1.767       4.341       8.377
  P        0.681       0.517       5.348
  C        3.041      -0.536       5.105
  O        1.836      -0.474       5.844
  O        0.851       0.525       3.757
  O       -0.705       0.146       5.762
  H        0.260      -0.133       3.350
  H        3.817       0.017       5.640
  H        2.927      -0.122       4.099
  H        3.346      -1.582       5.020
  H       -2.343       1.933      12.516
  H       -1.469       1.421      11.093
  H       -3.031       0.728      11.454

 3  4  5  6  7  8  9  10  11  12  23  26  30  31 0
 6-311+G(2d,p)
 ****
 33  35  36  37  38 0
 6-311+G(2d,p)
 ****
 1  2  13  14  15  16  17  18  19  20  21  22  24  25 0
 3-21G
 ****
 27  28  29  32  34  39  40  41  42  43  44  45  46  47  48  49 0
 3-21G
 ****


