%nproc=1
%NoSave
%Mem=1900MB
#P OB98/GEN NMR

erre ene a

0 1
  C     -832.133     517.250     399.764
  O     -831.391     518.284     400.426
  P     -830.340     519.102     399.529
  C     -827.852     518.619     400.134
  O     -829.002     518.216     399.401
  C     -826.588     518.197     399.405
  O     -826.401     516.755     399.436
  C     -826.586     518.565     397.931
  O     -826.353     519.961     397.758
  C     -825.479     517.667     397.402
  O     -824.179     518.228     397.687
  C     -825.686     516.381     398.229
  N     -825.325     512.518     394.890
  C     -824.397     513.371     395.405
  N     -824.577     514.371     396.283
  C     -825.860     514.460     396.653
  C     -826.921     513.656     396.231
  C     -826.615     512.654     395.299
  N     -827.564     511.804     394.763
  N     -828.094     514.049     396.830
  C     -827.769     515.078     397.584
  N     -826.433     515.356     397.521
  O     -829.904     520.313     400.483
  O     -830.902     519.586     398.236
  H     -823.508     517.608     397.327
  H     -830.280     521.151     400.151
  H     -823.379     513.223     395.041
  H     -828.460     515.654     398.199
  H     -824.726     515.938     398.552
  H     -825.529     517.514     396.319
  H     -827.544     518.290     397.463
  H     -825.722     518.664     399.917
  H     -827.871     518.163     401.141
  H     -827.263     511.158     394.045
  H     -828.538     511.963     394.996
  H     -827.886     519.710     400.282
  P     -827.623     520.905     397.486
  C     -828.211     519.685     395.300
  O     -828.621     519.968     396.622
  O     -827.046     521.907     396.393
  O     -828.216     521.521     398.702
  H     -826.558     521.442     395.689
  H     -828.951     519.019     394.839
  H     -827.234     519.197     395.289
  H     -828.157     520.611     394.713
  H     -832.795     516.782     400.463
  H     -831.456     516.521     399.371
  H     -832.702     517.676     398.964

 3  4  5  6  7  8  9  10  11  12  22  25  29  30  31  32 0
 6-311+G(2d,p)
 ****
 33  36  37 0
 6-311+G(2d,p)
 ****
 1  2  13  14  15  16  17  18  19  20  21  23  24  26 0
 3-21G
 ****
 27  28  34  35  38  39  40  41  42  43  44  45  46  47  48 0
 3-21G
 ****


