%nproc=1
%NoSave
%Mem=1900MB
#P OB98/GEN NMR

erre ene a

0 1
  C      552.029    -109.134    -348.396
  O      551.074    -109.683    -349.287
  P      550.190    -110.959    -348.874
  C      550.883    -113.283    -348.028
  O      551.215    -112.191    -348.878
  C      552.126    -114.125    -347.751
  O      553.069    -113.318    -347.011
  C      551.907    -115.374    -346.898
  O      551.467    -116.516    -347.615
  C      553.323    -115.618    -346.386
  O      554.108    -116.255    -347.415
  C      553.825    -114.191    -346.137
  N      555.044    -115.198    -341.271
  C      555.402    -115.789    -342.432
  N      555.023    -115.468    -343.687
  C      554.208    -114.400    -343.678
  C      553.755    -113.700    -342.581
  C      554.206    -114.137    -341.320
  N      553.853    -113.521    -340.142
  N      552.916    -112.672    -342.967
  C      552.878    -112.751    -344.280
  N      553.647    -113.776    -344.762
  O      548.950    -111.141    -349.682
  O      549.888    -110.742    -347.318
  H      554.232    -115.593    -348.122
  H      549.149    -111.316    -347.039
  H      556.091    -116.625    -342.345
  H      552.305    -112.094    -344.922
  H      554.887    -114.073    -346.393
  H      553.354    -116.273    -345.510
  H      551.249    -115.165    -346.041
  H      552.587    -114.392    -348.714
  H      550.137    -113.903    -348.545
  H      554.326    -113.822    -339.302
  H      553.364    -112.637    -340.187
  H      550.443    -112.911    -347.103
  P      550.939    -117.770    -346.755
  C      552.230    -119.349    -345.115
  O      552.256    -118.545    -346.276
  O      549.916    -118.606    -347.441
  O      550.411    -117.074    -345.412
  H      551.094    -116.675    -344.858
  H      553.165    -119.914    -345.055
  H      551.399    -120.059    -345.154
  H      552.135    -118.725    -344.227
  H      552.507    -108.296    -348.858
  H      552.762    -109.876    -348.157
  H      551.539    -108.816    -347.500

 3  4  5  6  7  8  9  10  11  12  22  25  29  30  31  32 0
 6-311+G(2d,p)
 ****
 33  36  37 0
 6-311+G(2d,p)
 ****
 1  2  13  14  15  16  17  18  19  20  21  23  24  26 0
 3-21G
 ****
 27  28  34  35  38  39  40  41  42  43  44  45  46  47  48 0
 3-21G
 ****


