%nproc=1
%NoSave
%Mem=1900MB
#P OB98/GEN NMR

erre ene a

0 1
  C      356.486     233.615    -395.622
  O      355.088     233.607    -395.835
  H      356.862     232.591    -395.527
  H      356.968     234.092    -396.479
  H      356.726     234.183    -394.719
  P      354.205     232.850    -394.729
  C      351.815     233.152    -393.771
  O      352.864     233.716    -394.543
  C      350.807     234.231    -393.388
  O      351.432     235.228    -392.552
  C      350.219     235.005    -394.566
  O      349.194     234.270    -395.225
  C      349.664     236.225    -393.852
  O      348.393     235.904    -393.258
  C      350.712     236.469    -392.749
  N      351.656     241.517    -392.568
  C      350.594     240.783    -392.159
  N      350.410     239.451    -392.249
  C      351.472     238.855    -392.822
  C      352.614     239.469    -393.287
  C      352.691     240.869    -393.152
  N      353.766     241.607    -393.590
  N      353.495     238.539    -393.798
  C      352.895     237.380    -393.643
  N      351.659     237.519    -393.064
  O      355.005     233.111    -393.366
  O      353.996     231.391    -394.969
  H      347.780     235.720    -393.994
  H      354.930     232.321    -392.796
  H      349.789     241.341    -391.691
  H      353.308     236.422    -393.935
  H      350.236     236.716    -391.791
  H      349.512     237.079    -394.514
  H      351.004     235.316    -395.264
  H      350.010     233.753    -392.801
  H      352.230     232.711    -392.861
  H      353.851     242.565    -393.288
  H      354.546     241.111    -394.018
  H      351.327     232.366    -394.361
  P      348.629     234.867    -396.606
  C      347.339     233.871    -398.627
  O      347.952     233.628    -397.365
  O      349.962     235.133    -397.457
  O      347.798     236.098    -396.473
  H      349.800     235.838    -398.117
  H      346.934     232.957    -399.009
  H      348.069     234.251    -399.311
  H      346.553     234.588    -398.510

 6  7  8  9  10  11  12  13  14  15  25  28  32  33  34  35 0
 6-311+G(2d,p)
 ****
 36  39  40 0
 6-311+G(2d,p)
 ****
 1  2  3  4  5  16  17  18  19  20  21  22  23  24 0
 3-21G
 ****
 26  27  29  30  31  37  38  41  42  43  44  45  46  47  48 0
 3-21G
 ****


