%nproc=1
%NoSave
%Mem=1900MB
#P OB98/GEN NMR

erre ene a

0 1
  C      342.043     111.816    -153.621
  O      341.179     111.384    -154.686
  P      340.879     112.388    -155.905
  C      338.389     112.336    -156.711
  O      339.693     111.776    -156.794
  C      337.503     111.774    -157.824
  O      337.935     112.264    -159.116
  C      337.532     110.257    -157.946
  O      336.752     109.629    -156.941
  C      336.977     110.057    -159.355
  O      335.541     110.099    -159.350
  C      337.556     111.278    -160.099
  N      338.681     110.924    -160.963
  C      338.372     110.219    -162.125
  O      337.233     109.849    -162.400
  N      339.428     109.927    -162.939
  C      340.743     110.204    -162.686
  O      341.648     109.895    -163.453
  C      341.015     110.877    -161.406
  C      339.990     111.196    -160.614
  O      342.155     112.155    -156.851
  O      340.750     113.830    -155.541
  H      335.255     109.937    -160.271
  H      342.331     112.965    -157.366
  H      339.223     109.445    -163.801
  H      342.048     111.091    -161.156
  H      340.174     111.694    -159.671
  H      336.779     111.746    -160.714
  H      337.268     109.095    -159.783
  H      338.566     109.901    -157.917
  H      336.475     112.126    -157.655
  H      338.457     113.424    -156.821
  H      337.967     112.110    -155.728
  P      337.560     108.844    -155.794
  C      336.147     106.704    -155.291
  O      336.447     108.044    -154.967
  O      337.992     110.057    -154.841
  O      338.697     108.033    -156.325
  H      337.326     110.769    -154.826
  H      337.033     106.169    -155.653
  H      335.373     106.683    -156.064
  H      335.773     106.197    -154.397
  H      342.136     111.033    -152.897
  H      341.628     112.685    -153.155
  H      343.009     112.051    -154.018

 3  4  5  6  7  8  9  10  11  12  13  23  28  29  30  31  32 0
 6-311+G(2d,p)
 ****
 33  34 0
 6-311+G(2d,p)
 ****
 1  2  14  15  16  17  18  19  20  21  22  24  25  26 0
 3-21G
 ****
 27  35  36  37  38  39  40  41  42  43  44  45 0
 3-21G
 ****


