%nproc=1
%NoSave
%Mem=1900MB
#P OB98/GEN NMR

erre ene a

0 1
  C     -430.799      39.259     358.565
  O     -431.691      38.240     358.976
  H     -430.221      38.898     357.711
  H     -430.111      39.507     359.379
  H     -431.358      40.150     358.263
  P     -432.619      38.569     360.244
  C     -430.705      38.123     361.938
  O     -431.627      39.064     361.406
  C     -430.315      38.507     363.362
  O     -429.671      39.799     363.384
  C     -431.484      38.586     364.335
  O     -431.828      37.304     364.834
  C     -430.914      39.503     365.411
  O     -430.065      38.778     366.323
  C     -430.098      40.502     364.581
  N     -432.258      44.695     366.378
  C     -431.543      43.712     367.030
  N     -431.434      43.841     368.371
  N     -430.993      42.693     366.429
  C     -431.217      42.681     365.092
  C     -431.895      43.602     364.328
  C     -432.471      44.741     365.004
  O     -433.062      45.682     364.474
  N     -431.891      43.251     363.003
  C     -431.244      42.099     362.971
  N     -430.832      41.702     364.217
  O     -433.085      37.122     360.750
  O     -433.784      39.458     359.969
  H     -430.555      38.018     366.680
  H     -433.971      37.197     361.155
  H     -432.644      45.468     366.895
  H     -431.053      41.519     362.077
  H     -429.194      40.831     365.106
  H     -431.702      39.957     366.014
  H     -432.091      44.393     368.908
  H     -432.350      39.074     363.863
  H     -430.929      43.114     368.857
  H     -429.578      37.769     363.710
  H     -429.809      38.110     361.311
  H     -431.162      37.128     361.928
  P     -433.304      37.109     365.436
  C     -432.787      37.312     367.977
  O     -433.338      37.923     366.818
  O     -433.311      35.580     365.907
  O     -434.412      37.407     364.481
  H     -434.230      35.275     366.036
  H     -432.885      37.976     368.811
  H     -431.752      37.099     367.810
  H     -433.310      36.401     368.183

 6  7  8  9  10  11  12  13  14  15  26  29  33  34 0
 6-311+G(2d,p)
 ****
 36  38  39  40  41 0
 6-311+G(2d,p)
 ****
 1  2  3  4  5  16  17  18  19  20  21  22  23  24  25 0
 3-21G
 ****
 27  28  30  31  32  35  37  42  43  44  45  46  47 0
 3-21G
 ****
 48  49 0
 3-21G
 ****


