%nproc=1
%NoSave
%Mem=1900MB
#P OB98/GEN NMR

erre ene a

0 1
  C      -17.678      35.136      75.993
  O      -17.157      34.195      76.918
  P      -17.918      32.796      77.094
  C      -18.898      33.399      79.429
  O      -19.162      33.039      78.079
  C      -20.202      33.496      80.220
  O      -21.037      34.550      79.646
  C      -21.035      32.203      80.220
  O      -21.701      32.116      81.488
  C      -22.054      32.469      79.124
  O      -23.199      31.637      79.215
  C      -22.324      33.958      79.366
  N      -22.981      34.608      78.229
  C      -24.314      34.973      78.386
  O      -24.966      34.781      79.413
  N      -24.915      35.522      77.284
  C      -24.357      35.654      76.045
  O      -24.986      36.044      75.069
  C      -22.945      35.252      75.940
  C      -22.330      34.756      77.018
  O      -16.897      31.932      77.974
  O      -18.271      32.111      75.815
  H      -22.935      30.741      78.934
  H      -16.396      31.316      77.409
  H      -25.879      35.803      77.383
  H      -22.464      35.362      74.975
  H      -21.297      34.433      76.964
  H      -22.940      34.090      80.266
  H      -21.589      32.298      78.147
  H      -20.441      31.301      80.037
  H      -19.965      33.796      81.250
  H      -18.391      34.366      79.448
  H      -18.224      32.659      79.880
  P      -21.864      30.663      82.156
  C      -24.344      30.403      81.372
  O      -23.022      29.910      81.345
  O      -22.554      31.049      83.550
  O      -20.571      29.928      82.312
  H      -23.255      31.717      83.448
  H      -24.366      31.495      81.424
  H      -24.869      29.988      82.237
  H      -24.862      30.084      80.462
  H      -17.063      36.012      75.991
  H      -18.675      35.401      76.277
  H      -17.689      34.705      75.014

 3  4  5  6  7  8  9  10  11  12  13  23  28  29  30  31  32 0
 6-311+G(2d,p)
 ****
 33  34 0
 6-311+G(2d,p)
 ****
 1  2  14  15  16  17  18  19  20  21  22  24  25  26 0
 3-21G
 ****
 27  35  36  37  38  39  40  41  42  43  44  45 0
 3-21G
 ****


