%nproc=1
%NoSave
%Mem=1900MB
#P OB98/GEN NMR

erre ene a

0 1
  C     -395.974    -198.715     159.085
  O     -396.349    -199.326     157.872
  H     -396.407    -199.284     159.911
  H     -396.366    -197.694     159.118
  H     -394.887    -198.694     159.205
  P     -395.507    -198.996     156.551
  C     -397.420    -197.998     155.132
  O     -396.198    -197.745     155.817
  C     -397.918    -196.759     154.387
  O     -398.045    -195.655     155.311
  C     -396.954    -196.307     153.285
  O     -397.150    -196.941     152.034
  C     -397.257    -194.813     153.198
  O     -398.329    -194.551     152.277
  C     -397.672    -194.450     154.627
  N     -395.009    -190.137     155.299
  C     -395.886    -190.464     154.281
  N     -396.039    -189.539     153.310
  N     -396.531    -191.600     154.226
  C     -396.200    -192.463     155.213
  C     -395.329    -192.259     156.264
  C     -394.675    -190.972     156.358
  O     -393.903    -190.629     157.246
  N     -395.215    -193.382     157.048
  C     -395.944    -194.282     156.425
  N     -396.623    -193.753     155.355
  O     -395.865    -200.212     155.567
  O     -394.023    -198.889     156.740
  H     -398.565    -193.608     152.352
  H     -395.101    -200.398     154.989
  H     -394.561    -189.239     155.302
  H     -396.054    -195.318     156.730
  H     -398.553    -193.796     154.630
  H     -396.384    -194.263     152.830
  H     -395.502    -188.687     153.259
  H     -395.915    -196.427     153.607
  H     -396.524    -189.813     152.453
  H     -398.921    -196.958     153.987
  H     -398.145    -198.295     155.893
  H     -397.305    -198.838     154.444
  P     -396.028    -196.887     150.900
  C     -397.675    -195.627     149.286
  O     -396.399    -195.715     149.880
  O     -396.305    -198.216     150.052
  O     -394.620    -196.820     151.391
  H     -395.694    -198.927     150.318
  H     -397.710    -194.774     148.641
  H     -398.418    -195.528     150.050
  H     -397.865    -196.513     148.717

 6  7  8  9  10  11  12  13  14  15  26  29  33  34 0
 6-311+G(2d,p)
 ****
 36  38  39  40  41 0
 6-311+G(2d,p)
 ****
 1  2  3  4  5  16  17  18  19  20  21  22  23  24  25 0
 3-21G
 ****
 27  28  30  31  32  35  37  42  43  44  45  46  47 0
 3-21G
 ****
 48  49 0
 3-21G
 ****


