%nproc=1
%NoSave
%Mem=1900MB
#P OB98/GEN NMR

erre ene a

0 1
  C       14.544     334.684    -149.692
  O       15.044     333.568    -150.430
  P       14.427     332.138    -150.042
  C       13.833     331.470    -152.474
  O       13.346     331.752    -151.172
  C       12.691     331.043    -153.405
  O       12.071     329.814    -152.916
  C       11.574     332.088    -153.534
  O       11.085     332.008    -154.883
  C       10.538     331.569    -152.549
  O        9.247     332.140    -152.731
  C       10.652     330.070    -152.816
  N        6.503     327.378    -151.564
  C        6.817     328.104    -152.666
  N        7.948     328.799    -152.924
  C        8.813     328.683    -151.896
  C        8.633     327.982    -150.714
  C        7.411     327.304    -150.563
  N        7.082     326.581    -149.441
  N        9.745     328.130    -149.894
  C       10.534     328.964    -150.549
  N       10.051     329.255    -151.792
  O       13.534     332.453    -148.751
  O       15.460     331.095    -149.778
  H        8.643     331.818    -152.038
  H       14.014     332.214    -147.938
  H        6.055     328.130    -153.439
  H       11.453     329.378    -150.173
  H       10.196     329.787    -153.774
  H       10.855     331.805    -151.526
  H       11.902     333.111    -153.331
  H       13.115     330.825    -154.394
  H       14.579     330.676    -152.435
  H        6.180     326.130    -149.425
  H        7.726     326.512    -148.670
  H       14.345     332.360    -152.865
  P       11.700     332.995    -155.987
  C       12.669     330.968    -157.227
  O       12.958     332.196    -156.582
  O       12.434     334.075    -155.047
  O       10.732     333.587    -156.958
  H       12.990     333.632    -154.385
  H       13.593     330.573    -157.649
  H       11.941     331.123    -158.028
  H       12.275     330.249    -156.501
  H       15.022     335.579    -150.032
  H       14.748     334.544    -148.651
  H       13.487     334.765    -149.840

 3  4  5  6  7  8  9  10  11  12  22  25  29  30  31  32 0
 6-311+G(2d,p)
 ****
 33  36  37 0
 6-311+G(2d,p)
 ****
 1  2  13  14  15  16  17  18  19  20  21  23  24  26 0
 3-21G
 ****
 27  28  34  35  38  39  40  41  42  43  44  45  46  47  48 0
 3-21G
 ****


