%nproc=1
%NoSave
%Mem=1900MB
#P OB98/GEN NMR

erre ene a

0 1
  C     -171.574     -77.454     713.036
  O     -172.831     -77.274     713.691
  P     -173.552     -75.851     713.514
  C     -171.790     -74.297     714.620
  O     -172.413     -74.717     713.410
  C     -171.013     -72.983     714.418
  O     -171.920     -71.849     714.320
  C     -170.027     -72.665     715.558
  O     -168.907     -71.988     714.986
  C     -170.808     -71.689     716.419
  O     -169.948     -70.929     717.266
  C     -171.533     -70.898     715.331
  N     -174.559     -66.820     714.712
  C     -173.473     -67.252     714.042
  N     -172.711     -68.341     714.283
  C     -173.205     -69.031     715.332
  C     -174.289     -68.715     716.114
  C     -174.994     -67.541     715.779
  N     -176.085     -67.080     716.483
  N     -174.460     -69.647     717.124
  C     -173.473     -70.509     716.942
  N     -172.708     -70.197     715.851
  O     -174.206     -75.591     714.957
  O     -174.585     -75.826     712.427
  H     -170.503     -70.395     717.861
  H     -175.182     -75.699     714.900
  H     -173.170     -66.633     713.198
  H     -173.268     -71.368     717.575
  H     -170.896     -70.140     714.861
  H     -171.525     -72.238     717.054
  H     -169.685     -73.537     716.126
  H     -170.465     -73.038     713.476
  H     -171.079     -75.075     714.963
  H     -176.503     -66.224     716.197
  H     -176.389     -67.581     717.308
  H     -172.541     -74.202     715.406
  P     -167.664     -72.897     714.542
  C     -166.636     -72.647     716.923
  O     -167.068     -73.529     715.896
  O     -166.555     -71.827     714.101
  O     -167.974     -73.870     713.453
  H     -165.940     -72.226     713.453
  H     -166.944     -73.049     717.891
  H     -167.063     -71.643     716.816
  H     -165.545     -72.563     716.901
  H     -171.206     -78.439     713.235
  H     -170.875     -76.731     713.402
  H     -171.700     -77.326     711.981

 3  4  5  6  7  8  9  10  11  12  22  25  29  30  31  32 0
 6-311+G(2d,p)
 ****
 33  36  37 0
 6-311+G(2d,p)
 ****
 1  2  13  14  15  16  17  18  19  20  21  23  24  26 0
 3-21G
 ****
 27  28  34  35  38  39  40  41  42  43  44  45  46  47  48 0
 3-21G
 ****


