%nproc=1
%NoSave
%Mem=1900MB
#P OB98/GEN NMR

erre ene a

0 1
  C      599.955    -432.986    -384.046
  O      600.950    -433.992    -384.057
  H      598.986    -433.453    -383.846
  H      599.910    -432.496    -385.023
  H      600.161    -432.247    -383.269
  P      602.476    -433.491    -384.163
  C      603.416    -434.594    -386.354
  O      602.820    -433.471    -385.731
  C      603.890    -434.240    -387.767
  O      602.724    -433.937    -388.581
  C      604.828    -433.029    -387.818
  O      605.797    -433.249    -388.846
  C      603.906    -431.888    -388.226
  O      604.625    -430.815    -388.830
  C      602.919    -432.618    -389.147
  N      601.650    -431.902    -389.281
  C      601.096    -431.845    -390.558
  O      601.681    -432.362    -391.521
  N      599.917    -431.158    -390.752
  C      599.377    -430.533    -389.746
  N      598.221    -429.855    -390.007
  C      599.945    -430.536    -388.391
  C      601.065    -431.240    -388.230
  O      603.268    -434.769    -383.612
  O      602.759    -432.224    -383.431
  H      605.351    -430.549    -388.228
  H      602.950    -435.612    -383.974
  H      599.461    -429.990    -387.590
  H      601.555    -431.300    -387.255
  H      603.346    -432.744    -390.150
  H      603.389    -431.498    -387.344
  H      605.337    -432.850    -386.868
  H      604.369    -435.124    -388.210
  H      597.884    -429.863    -390.961
  H      602.705    -435.427    -386.406
  H      597.739    -429.291    -389.321
  H      604.260    -434.911    -385.740
  P      607.283    -433.691    -388.455
  C      608.314    -431.357    -387.993
  O      607.913    -432.610    -387.444
  O      608.167    -434.084    -389.590
  O      607.022    -434.953    -387.488
  H      607.692    -435.629    -387.704
  H      608.712    -430.738    -387.216
  H      607.468    -430.874    -388.435
  H      609.063    -431.518    -388.740

 6  7  8  9  10  11  12  13  14  15  16  26  30  31  32  33  35 0
 6-311+G(2d,p)
 ****
 37  38 0
 6-311+G(2d,p)
 ****
 1  2  3  4  5  17  18  19  20  21  22  23  24  25 0
 3-21G
 ****
 27  28  29  34  36  39  40  41  42  43  44  45  46 0
 3-21G
 ****


