%nproc=1
%NoSave
%Mem=1900MB
#P OB98/GEN NMR

erre ene a

0 1
  C     -894.820    -521.118    -896.970
  O     -895.880    -520.349    -896.420
  P     -896.480    -519.170    -897.330
  C     -895.870    -516.682    -897.800
  O     -895.530    -517.893    -897.120
  C     -895.820    -515.515    -896.830
  O     -894.470    -515.363    -896.280
  C     -896.130    -514.167    -897.440
  O     -897.530    -514.015    -897.670
  C     -895.550    -513.208    -896.400
  O     -896.440    -513.101    -895.290
  C     -894.270    -513.968    -895.980
  N     -891.110    -509.991    -896.630
  C     -892.220    -510.125    -895.900
  N     -893.040    -511.209    -895.800
  C     -892.560    -512.210    -896.550
  C     -891.440    -512.219    -897.360
  C     -890.710    -511.035    -897.390
  N     -889.550    -510.890    -898.170
  N     -891.300    -513.425    -898.020
  C     -892.290    -514.170    -897.580
  N     -893.070    -513.495    -896.690
  O     -897.840    -518.783    -896.570
  O     -896.720    -519.550    -898.770
  H     -895.940    -512.677    -894.550
  H     -898.520    -518.510    -897.220
  H     -892.540    -509.269    -895.320
  H     -892.500    -515.191    -897.880
  H     -894.070    -513.888    -894.890
  H     -895.350    -512.205    -896.790
  H     -895.600    -514.023    -898.410
  H     -896.500    -515.708    -895.990
  H     -896.880    -516.757    -898.210
  H     -889.170    -509.954    -898.230
  H     -889.350    -511.617    -898.840
  H     -895.170    -516.541    -898.630
  P     -898.000    -512.954    -898.780
  C     -898.180    -510.379    -898.730
  O     -898.120    -511.566    -897.950
  O     -899.550    -513.362    -898.990
  O     -897.160    -512.911    -900.000
  H     -900.000    -513.457    -898.130
  H     -898.320    -509.523    -898.060
  H     -899.040    -510.447    -899.420
  H     -897.260    -510.239    -899.310
  H     -894.517    -521.863    -896.265
  H     -893.992    -520.477    -897.190
  H     -895.153    -521.593    -897.869

 3  4  5  6  7  8  9  10  11  12  22  25  29  30  31  32 0
 6-311+G(2d,p)
 ****
 33  36  37 0
 6-311+G(2d,p)
 ****
 1  2  13  14  15  16  17  18  19  20  21  23  24  26 0
 3-21G
 ****
 27  28  34  35  38  39  40  41  42  43  44  45  46  47  48 0
 3-21G
 ****


