%nproc=1
%NoSave
%Mem=1900MB
#P OB98/GEN NMR

erre ene a

0 1
  C     -126.302      21.918     134.067
  O     -127.351      22.488     133.315
  H     -125.419      21.837     133.428
  H     -126.590      20.916     134.400
  H     -126.054      22.535     134.933
  P     -128.637      23.048     134.086
  C     -129.894      20.796     134.179
  O     -129.259      21.826     134.920
  C     -130.601      19.802     135.107
  O     -131.521      18.991     134.337
  C     -129.587      18.846     135.739
  O     -130.013      18.376     137.014
  C     -129.566      17.683     134.760
  O     -129.091      16.473     135.341
  C     -131.031      17.637     134.329
  N     -129.969      13.797     131.156
  C     -129.436      14.076     132.399
  N     -128.481      13.231     132.846
  N     -129.798      15.097     133.129
  C     -130.708      15.897     132.523
  C     -131.291      15.739     131.287
  C     -130.911      14.583     130.505
  O     -131.337      14.295     129.390
  N     -132.157      16.767     131.005
  C     -132.096      17.546     132.065
  N     -131.240      17.053     133.021
  O     -129.717      23.259     132.922
  O     -128.425      24.306     134.871
  H     -128.865      15.864     134.613
  H     -130.369      23.933     133.181
  H     -129.666      12.987     130.643
  H     -132.650      18.469     132.192
  H     -131.627      17.059     135.047
  H     -128.888      17.935     133.940
  H     -128.049      12.542     132.250
  H     -128.601      19.302     135.840
  H     -127.882      13.577     133.601
  H     -131.199      20.339     135.852
  H     -129.114      20.282     133.606
  H     -130.599      21.224     133.463
  P     -129.574      19.223     138.301
  C     -128.671      17.200     139.706
  O     -128.400      18.418     139.038
  O     -130.826      19.086     139.286
  O     -129.249      20.647     138.000
  H     -131.333      19.917     139.305
  H     -127.767      16.818     140.132
  H     -129.065      16.491     139.008
  H     -129.387      17.371     140.483

 6  7  8  9  10  11  12  13  14  15  26  29  33  34 0
 6-311+G(2d,p)
 ****
 36  38  39  40  41 0
 6-311+G(2d,p)
 ****
 1  2  3  4  5  16  17  18  19  20  21  22  23  24  25 0
 3-21G
 ****
 27  28  30  31  32  35  37  42  43  44  45  46  47 0
 3-21G
 ****
 48  49 0
 3-21G
 ****


