%nproc=1
%NoSave
%Mem=1900MB
#P OB98/GEN NMR

erre ene a

0 1
  C      -79.295     232.729     -67.585
  O      -78.861     231.645     -68.385
  H      -78.427     233.152     -67.071
  H      -80.019     232.397     -66.837
  H      -79.739     233.503     -68.215
  P      -79.977     230.683     -69.022
  C      -80.309     232.211     -71.073
  O      -80.910     231.644     -69.912
  C      -81.322     233.017     -71.884
  O      -80.656     233.808     -72.891
  C      -82.320     232.167     -72.654
  O      -83.219     231.439     -71.851
  C      -82.863     233.163     -73.666
  O      -83.895     233.984     -73.122
  C      -81.606     234.017     -73.961
  N      -81.023     233.715     -75.263
  C      -81.720     234.191     -76.368
  O      -82.781     234.812     -76.287
  N      -81.175     233.899     -77.587
  C      -80.053     233.156     -77.805
  O      -79.626     232.912     -78.927
  C      -79.379     232.646     -76.601
  C      -79.886     232.947     -75.402
  O      -80.737     229.835     -68.045
  O      -79.176     229.840     -70.119
  H      -84.737     233.509     -73.255
  H      -79.691     229.048     -70.408
  H      -81.657     234.249     -78.401
  H      -78.493     232.042     -76.735
  H      -79.405     232.583     -74.497
  H      -81.861     235.085     -73.944
  H      -83.275     232.669     -74.549
  H      -81.760     231.417     -73.229
  H      -81.830     233.707     -71.202
  H      -79.928     231.388     -71.687
  H      -79.469     232.848     -70.775
  P      -84.401     230.542     -72.432
  C      -83.013     228.334     -72.617
  O      -83.761     229.344     -73.283
  O      -85.571     231.268     -73.010
  O      -84.910     229.775     -71.105
  H      -85.876     229.652     -71.197
  H      -82.663     227.620     -73.332
  H      -83.636     227.843     -71.899
  H      -82.177     228.779     -72.119

 6  7  8  9  10  11  12  13  14  15  16  26  31  32  33  34  35 0
 6-311+G(2d,p)
 ****
 36  37 0
 6-311+G(2d,p)
 ****
 1  2  3  4  5  17  18  19  20  21  22  23  24  25 0
 3-21G
 ****
 27  28  29  30  38  39  40  41  42  43  44  45 0
 3-21G
 ****


