%nproc=1
%NoSave
%Mem=1900MB
#P OB98/GEN NMR

erre ene a

0 1
  C      272.003    -256.803     382.895
  O      271.546    -255.791     383.766
  P      271.140    -254.361     383.179
  C      272.406    -252.262     382.404
  O      272.438    -253.421     383.224
  C      273.419    -251.227     382.901
  O      274.768    -251.696     382.659
  C      273.323    -249.881     382.188
  O      272.224    -249.129     382.663
  C      274.682    -249.283     382.510
  O      274.692    -248.703     383.829
  C      275.599    -250.527     382.480
  N      279.362    -248.531     379.662
  C      278.751    -248.098     380.798
  N      277.727    -248.674     381.455
  C      277.318    -249.791     380.836
  C      277.832    -250.337     379.661
  C      278.914    -249.670     379.078
  N      279.594    -250.130     377.974
  N      277.128    -251.484     379.321
  C      276.208    -251.615     380.268
  N      276.341    -250.651     381.234
  O      269.897    -253.755     383.754
  O      270.955    -254.637     381.606
  H      275.569    -248.279     383.947
  H      270.031    -254.421     381.342
  H      279.134    -247.174     381.216
  H      275.463    -252.394     380.301
  H      276.321    -250.524     383.301
  H      274.985    -248.500     381.809
  H      273.246    -250.033     381.103
  H      273.280    -251.105     383.980
  H      271.396    -251.831     382.441
  H      280.446    -249.649     377.728
  H      279.478    -251.111     377.706
  H      272.625    -252.552     381.362
  P      271.431    -248.148     381.676
  C      272.107    -246.606     379.746
  O      272.529    -247.255     380.932
  O      270.283    -247.407     382.279
  O      270.925    -249.132     380.507
  H      270.072    -248.814     380.160
  H      272.094    -247.332     378.925
  H      272.809    -245.799     379.503
  H      271.110    -246.170     379.862
  H      272.227    -257.685     383.459
  H      272.886    -256.468     382.391
  H      271.243    -257.024     382.175

 3  4  5  6  7  8  9  10  11  12  22  25  29  30  31  32 0
 6-311+G(2d,p)
 ****
 33  36  37 0
 6-311+G(2d,p)
 ****
 1  2  13  14  15  16  17  18  19  20  21  23  24  26 0
 3-21G
 ****
 27  28  34  35  38  39  40  41  42  43  44  45  46  47  48 0
 3-21G
 ****


