%nproc=1
%NoSave
%Mem=1900MB
#P OB98/GEN NMR

erre ene a

0 1
  C     -731.184    -206.452     324.072
  O     -731.831    -207.648     324.513
  P     -731.066    -209.054     324.316
  C     -731.988    -209.858     326.585
  O     -730.844    -209.726     325.745
  C     -731.854    -211.079     327.515
  O     -731.814    -212.297     326.732
  C     -730.583    -211.037     328.375
  O     -730.842    -211.247     329.773
  C     -729.668    -212.063     327.711
  O     -728.677    -212.583     328.598
  C     -730.662    -213.067     327.117
  N     -730.072    -213.808     325.994
  C     -728.875    -214.455     326.244
  O     -728.257    -214.368     327.308
  N     -728.339    -215.158     325.191
  C     -728.859    -215.214     323.935
  O     -728.311    -215.841     323.022
  C     -730.096    -214.467     323.707
  C     -730.637    -213.806     324.745
  O     -729.872    -209.033     323.434
  O     -732.220    -209.990     323.688
  H     -729.113    -212.833     329.440
  H     -731.801    -210.555     323.007
  H     -727.469    -215.657     325.367
  H     -730.522    -214.460     322.710
  H     -731.545    -213.227     324.603
  H     -730.972    -213.801     327.864
  H     -729.144    -211.555     326.898
  H     -730.111    -210.056     328.350
  H     -732.750    -211.113     328.154
  H     -732.877    -209.982     325.978
  H     -732.138    -208.936     327.164
  P     -731.047    -210.077     330.841
  C     -733.620    -209.928     330.800
  O     -732.398    -209.298     330.490
  O     -729.850    -209.206     331.080
  O     -731.402    -210.874     332.189
  H     -730.969    -210.452     332.951
  H     -734.406    -209.471     330.177
  H     -733.892    -209.772     331.843
  H     -733.601    -211.002     330.569
  H     -731.815    -205.611     324.271
  H     -730.995    -206.515     323.021
  H     -730.257    -206.334     324.594

 3  4  5  6  7  8  9  10  11  12  13  23  28  29  30  31  32 0
 6-311+G(2d,p)
 ****
 33  34 0
 6-311+G(2d,p)
 ****
 1  2  14  15  16  17  18  19  20  21  22  24  25  26  27 0
 3-21G
 ****
 35  36  37  38  39  40  41  42  43  44  45 0
 3-21G
 ****


