%nproc=1
%NoSave
%Mem=1900MB
#P OB98/GEN NMR

erre ene a

0 1
  C      -67.155     -12.580    -121.487
  O      -66.246     -13.185    -120.562
  P      -64.678     -12.998    -120.854
  C      -63.988     -12.336    -118.447
  O      -63.874     -13.288    -119.494
  C      -63.987     -13.014    -117.071
  O      -65.223     -13.756    -116.858
  C      -62.835     -14.004    -116.874
  O      -62.454     -13.962    -115.494
  C      -63.483     -15.345    -117.159
  O      -62.728     -16.422    -116.610
  C      -64.862     -15.117    -116.543
  N      -65.998     -20.055    -117.174
  C      -64.934     -19.436    -116.623
  N      -64.695     -18.110    -116.513
  C      -65.726     -17.404    -117.011
  C      -66.872     -17.894    -117.614
  C      -66.993     -19.293    -117.691
  N      -68.065     -19.925    -118.277
  N      -67.676     -16.856    -118.044
  C      -67.021     -15.762    -117.709
  N      -65.855     -16.041    -117.057
  O      -64.531     -11.416    -121.049
  O      -64.195     -13.744    -122.052
  H      -63.241     -17.248    -116.731
  H      -64.374     -11.211    -121.990
  H      -64.166     -20.093    -116.219
  H      -67.341     -14.754    -117.921
  H      -64.855     -15.227    -115.451
  H      -63.560     -15.499    -118.244
  H      -61.960     -13.820    -117.506
  H      -63.936     -12.234    -116.302
  H      -64.913     -11.762    -118.561
  H      -68.061     -20.932    -118.317
  H      -68.789     -19.369    -118.706
  H      -63.173     -11.610    -118.532
  P      -60.982     -13.417    -115.173
  C      -61.848     -11.755    -113.381
  O      -61.025     -12.868    -113.670
  O      -60.867     -12.090    -116.061
  O      -59.890     -14.392    -115.477
  H      -59.932     -11.902    -116.265
  H      -62.337     -11.917    -112.415
  H      -62.618     -11.600    -114.143
  H      -61.226     -10.858    -113.317
  H      -68.161     -12.778    -121.180
  H      -66.994     -12.987    -122.463
  H      -66.990     -11.523    -121.509

 3  4  5  6  7  8  9  10  11  12  22  25  29  30  31  32 0
 6-311+G(2d,p)
 ****
 33  36  37 0
 6-311+G(2d,p)
 ****
 1  2  13  14  15  16  17  18  19  20  21  23  24  26 0
 3-21G
 ****
 27  28  34  35  38  39  40  41  42  43  44  45  46  47  48 0
 3-21G
 ****


