%nproc=1
%NoSave
%Mem=1900MB
#P OB98/GEN NMR

erre ene a

0 1
  C      334.672    -898.138    -184.739
  O      334.181    -899.251    -185.448
  H      334.467    -898.285    -183.675
  H      334.173    -897.223    -185.071
  H      335.755    -898.026    -184.874
  P      334.630    -899.448    -186.976
  C      336.489    -900.862    -185.870
  O      336.124    -900.030    -186.955
  C      337.704    -901.731    -186.223
  O      337.307    -902.700    -187.227
  C      338.836    -900.891    -186.830
  O      340.112    -901.472    -186.586
  C      338.531    -900.947    -188.317
  O      339.681    -900.699    -189.132
  C      337.985    -902.369    -188.449
  N      336.915    -904.856    -192.783
  C      338.073    -904.875    -192.037
  N      339.077    -905.658    -192.494
  N      338.235    -904.167    -190.946
  C      337.179    -903.379    -190.644
  C      335.984    -903.250    -191.320
  C      335.795    -904.070    -192.506
  O      334.813    -904.073    -193.222
  N      335.155    -902.336    -190.729
  C      335.843    -901.904    -189.682
  N      337.067    -902.524    -189.577
  O      334.839    -897.951    -187.509
  O      333.668    -900.215    -187.842
  H      339.383    -900.630    -190.061
  H      334.768    -897.924    -188.487
  H      336.834    -905.454    -193.600
  H      335.491    -901.161    -188.972
  H      338.794    -903.098    -188.596
  H      337.798    -900.182    -188.555
  H      339.054    -906.060    -193.423
  H      338.824    -899.862    -186.481
  H      340.019    -905.441    -192.138
  H      338.022    -902.300    -185.340
  H      335.620    -901.484    -185.642
  H      336.684    -900.263    -184.978
  P      341.256    -900.568    -185.904
  C      340.508    -901.005    -183.403
  O      340.792    -900.100    -184.460
  O      341.220    -899.203    -186.768
  O      342.619    -901.176    -185.898
  H      342.055    -899.086    -187.253
  H      340.216    -900.456    -182.532
  H      341.381    -901.583    -183.184
  H      339.712    -901.658    -183.696

 6  7  8  9  10  11  12  13  14  15  26  29  33  34 0
 6-311+G(2d,p)
 ****
 36  38  39  40  41 0
 6-311+G(2d,p)
 ****
 1  2  3  4  5  16  17  18  19  20  21  22  23  24  25 0
 3-21G
 ****
 27  28  30  31  32  35  37  42  43  44  45  46  47 0
 3-21G
 ****
 48  49 0
 3-21G
 ****


