%nproc=1
%NoSave
%Mem=1900MB
#P OB98/GEN NMR

erre ene a

0 1
  C       14.490     -73.944     225.422
  O       15.228     -74.254     224.255
  H       14.842     -74.578     226.241
  H       13.428     -74.144     225.253
  H       14.633     -72.896     225.699
  P       15.025     -73.276     223.004
  C       14.123     -74.867     221.124
  O       15.224     -74.156     221.671
  C       14.509     -75.480     219.782
  O       13.392     -76.178     219.197
  C       14.896     -74.465     218.720
  O       16.159     -73.883     218.958
  C       14.853     -75.334     217.471
  O       16.078     -76.052     217.283
  C       13.691     -76.306     217.786
  N       12.533     -76.052     216.949
  C       12.740     -76.219     215.573
  O       13.841     -76.579     215.153
  N       11.709     -75.938     214.716
  C       10.582     -75.501     215.184
  N        9.612     -75.211     214.276
  C       10.324     -75.310     216.625
  C       11.334     -75.600     217.445
  O       16.347     -72.378     223.050
  O       13.755     -72.494     223.021
  H       16.014     -76.480     216.404
  H       17.167     -72.892     223.137
  H        9.361     -74.956     216.966
  H       11.231     -75.488     218.518
  H       14.006     -77.346     217.628
  H       14.694     -74.736     216.570
  H       14.116     -73.698     218.630
  H       15.318     -76.202     219.957
  H        9.849     -75.304     213.296
  H       13.259     -74.205     221.006
  H        8.726     -74.791     214.517
  H       13.845     -75.650     221.837
  P       16.510     -72.413     218.432
  C       17.201     -73.286     216.109
  O       17.616     -72.587     217.276
  O       16.878     -71.426     219.489
  O       15.210     -72.009     217.589
  H       15.006     -72.600     216.843
  H       18.015     -73.339     215.416
  H       16.380     -72.769     215.657
  H       16.895     -74.276     216.376

 6  7  8  9  10  11  12  13  14  15  16  26  30  31  32  33  35 0
 6-311+G(2d,p)
 ****
 37  38 0
 6-311+G(2d,p)
 ****
 1  2  3  4  5  17  18  19  20  21  22  23  24  25 0
 3-21G
 ****
 27  28  29  34  36  39  40  41  42  43  44  45  46 0
 3-21G
 ****


