%nproc=1
%NoSave
%Mem=1900MB
#P OB98/GEN NMR

erre ene a

0 1
  C      346.216    -181.635     -77.225
  O      346.319    -182.827     -78.000
  P      347.585    -183.784     -77.765
  C      348.923    -183.328     -79.927
  O      348.855    -183.148     -78.515
  C      350.383    -183.275     -80.407
  O      350.854    -181.904     -80.333
  C      351.369    -184.098     -79.570
  O      351.581    -185.463     -79.922
  C      352.680    -183.367     -79.851
  O      353.242    -183.835     -81.092
  C      352.257    -181.908     -79.997
  N      354.856    -177.984     -77.989
  C      354.844    -178.518     -79.229
  N      354.124    -179.567     -79.681
  C      353.343    -180.061     -78.710
  C      353.246    -179.620     -77.400
  C      354.054    -178.526     -77.043
  N      354.077    -177.988     -75.777
  N      352.345    -180.384     -76.692
  C      351.915    -181.284     -77.556
  N      352.478    -181.124     -78.794
  O      347.357    -185.238     -78.009
  O      347.935    -183.516     -76.221
  H      353.313    -184.804     -81.016
  H      348.222    -184.356     -75.812
  H      355.502    -178.046     -79.953
  H      351.205    -182.066     -77.330
  H      352.787    -181.398     -80.808
  H      353.432    -183.552     -79.079
  H      351.126    -184.027     -78.500
  H      350.426    -183.596     -81.455
  H      348.344    -182.544     -80.422
  H      354.717    -177.234     -75.593
  H      353.527    -178.417     -75.045
  H      348.437    -184.275     -80.158
  P      350.499    -186.593     -79.577
  C      350.482    -186.424     -76.966
  O      349.835    -186.141     -78.189
  O      351.013    -187.989     -79.598
  O      349.338    -186.295     -80.639
  H      348.861    -185.463     -80.493
  H      349.991    -185.860     -76.171
  H      351.536    -186.134     -77.008
  H      350.402    -187.494     -76.740
  H      345.324    -181.109     -77.496
  H      347.067    -181.014     -77.411
  H      346.179    -181.887     -76.186

 3  4  5  6  7  8  9  10  11  12  22  25  29  30  31  32 0
 6-311+G(2d,p)
 ****
 33  36  37 0
 6-311+G(2d,p)
 ****
 1  2  13  14  15  16  17  18  19  20  21  23  24  26 0
 3-21G
 ****
 27  28  34  35  38  39  40  41  42  43  44  45  46  47  48 0
 3-21G
 ****


