%nproc=1
%NoSave
%Mem=1900MB
#P OB98/GEN NMR

erre ene a

0 1
  C     -173.943      77.095     378.767
  O     -173.617      78.329     378.157
  H     -173.534      76.275     378.173
  H     -173.495      77.066     379.762
  H     -175.025      76.983     378.863
  P     -174.411      78.719     376.820
  C     -173.072      77.119     375.274
  O     -173.396      78.463     375.598
  C     -172.522      77.031     373.851
  O     -173.567      77.448     372.925
  C     -171.287      77.910     373.593
  O     -170.391      77.193     372.741
  C     -171.856      79.093     372.834
  O     -170.888      79.736     372.010
  C     -172.984      78.431     372.049
  N     -173.763      82.358     368.918
  C     -172.815      81.402     368.943
  N     -172.712      80.354     369.783
  C     -173.760      80.312     370.624
  C     -174.805      81.212     370.714
  C     -174.775      82.294     369.817
  N     -175.699      83.313     369.826
  N     -175.659      80.861     371.743
  C     -175.121      79.783     372.280
  N     -173.971      79.413     371.637
  O     -174.487      80.316     376.917
  O     -175.761      78.104     376.670
  H     -170.206      80.141     372.581
  H     -175.279      80.576     377.420
  H     -172.031      81.491     368.196
  H     -175.500      79.253     373.143
  H     -172.629      77.921     371.145
  H     -172.248      79.832     373.542
  H     -170.762      78.213     374.508
  H     -172.300      75.980     373.628
  H     -173.976      76.508     375.345
  H     -175.533      84.100     369.216
  H     -176.393      83.337     370.559
  H     -172.334      76.741     375.990
  P     -169.254      76.305     373.438
  C     -167.566      78.244     373.868
  O     -167.838      77.018     373.201
  O     -169.178      75.008     372.507
  O     -169.552      75.950     374.859
  H     -168.952      74.223     373.038
  H     -166.586      78.584     373.604
  H     -167.618      78.094     374.926
  H     -168.289      78.977     373.576

 6  7  8  9  10  11  12  13  14  15  25  28  32  33  34  35 0
 6-311+G(2d,p)
 ****
 36  39  40 0
 6-311+G(2d,p)
 ****
 1  2  3  4  5  16  17  18  19  20  21  22  23  24 0
 3-21G
 ****
 26  27  29  30  31  37  38  41  42  43  44  45  46  47 0
 3-21G
 ****
 48 0
 3-21G
 ****


