%nproc=1
%NoSave
%Mem=1900MB
#P OB98/GEN NMR

erre ene a

0 1
  C      -57.780      75.219    -388.780
  O      -57.525      76.549    -389.223
  P      -56.027      77.109    -389.071
  C      -56.632      77.731    -386.620
  O      -55.714      77.078    -387.493
  C      -55.977      77.994    -385.263
  O      -55.718      76.753    -384.584
  C      -54.638      78.712    -385.334
  O      -54.793      80.126    -385.477
  C      -54.060      78.378    -383.969
  O      -54.643      79.233    -382.965
  C      -54.526      76.930    -383.773
  N      -50.795      73.889    -382.043
  C      -51.560      74.816    -381.424
  N      -52.526      75.590    -381.953
  C      -52.639      75.370    -383.280
  C      -51.903      74.486    -384.050
  C      -50.942      73.714    -383.381
  N      -50.174      72.754    -384.009
  N      -52.303      74.543    -385.367
  C      -53.276      75.435    -385.389
  N      -53.523      75.951    -384.150
  O      -56.192      78.676    -389.383
  O      -55.017      76.459    -389.956
  H      -54.477      80.157    -383.246
  H      -55.341      79.044    -389.682
  H      -51.375      74.933    -380.361
  H      -53.822      75.723    -386.272
  H      -54.814      76.725    -382.731
  H      -52.978      78.526    -383.921
  H      -53.999      78.288    -386.125
  H      -56.697      78.566    -384.651
  H      -57.503      77.091    -386.476
  H      -49.646      72.119    -383.427
  H      -50.430      72.489    -384.948
  H      -56.955      78.672    -387.076
  P      -53.809      80.847    -386.524
  C      -52.067      80.796    -384.588
  O      -52.330      80.594    -385.967
  O      -54.076      82.404    -386.242
  O      -54.055      80.480    -387.950
  H      -53.866      82.935    -387.032
  H      -51.138      80.294    -384.330
  H      -52.878      80.385    -383.968
  H      -51.963      81.867    -384.390
  H      -58.811      74.981    -388.941
  H      -57.554      75.141    -387.737
  H      -57.166      74.536    -389.330

 3  4  5  6  7  8  9  10  11  12  22  25  29  30  31  32 0
 6-311+G(2d,p)
 ****
 33  36  37 0
 6-311+G(2d,p)
 ****
 1  2  13  14  15  16  17  18  19  20  21  23  24  26 0
 3-21G
 ****
 27  28  34  35  38  39  40  41  42  43  44  45  46  47  48 0
 3-21G
 ****


