%nproc=1
%NoSave
%Mem=1900MB
#P OB98/GEN NMR

erre ene a

0 1
  C     -200.696    -148.660    -125.751
  O     -199.687    -147.948    -125.058
  P     -198.348    -147.584    -125.857
  C     -199.206    -145.460    -127.103
  O     -198.785    -146.813    -127.193
  C     -198.197    -144.558    -127.816
  O     -196.891    -144.688    -127.209
  C     -198.002    -144.903    -129.285
  O     -199.059    -144.394    -130.083
  C     -196.653    -144.257    -129.579
  O     -196.807    -142.857    -129.868
  C     -195.907    -144.458    -128.243
  N     -194.928    -145.537    -128.304
  C     -193.623    -145.156    -128.608
  O     -193.302    -143.989    -128.836
  N     -192.706    -146.168    -128.680
  C     -192.966    -147.499    -128.539
  O     -192.113    -148.367    -128.672
  C     -194.369    -147.846    -128.248
  C     -195.269    -146.867    -128.152
  O     -197.821    -149.000    -126.387
  O     -197.313    -146.877    -125.047
  H     -195.906    -142.500    -129.995
  H     -196.844    -149.015    -126.377
  H     -191.751    -145.912    -128.875
  H     -194.613    -148.894    -128.131
  H     -196.308    -147.102    -127.952
  H     -195.385    -143.536    -127.960
  H     -196.157    -144.710    -130.439
  H     -197.911    -145.990    -129.406
  H     -198.523    -143.515    -127.704
  H     -199.280    -145.172    -126.050
  H     -200.197    -145.362    -127.557
  P     -199.301    -145.100    -131.505
  C     -201.420    -146.626    -131.399
  O     -200.037    -146.481    -131.161
  O     -197.805    -145.507    -131.895
  O     -199.985    -144.209    -132.489
  H     -197.266    -145.722    -131.117
  H     -201.730    -146.085    -132.296
  H     -201.975    -146.252    -130.536
  H     -201.645    -147.690    -131.533
  H     -201.525    -148.831    -125.097
  H     -200.305    -149.598    -126.085
  H     -201.020    -148.088    -126.595

 3  4  5  6  7  8  9  10  11  12  13  23  28  29  30  31  32 0
 6-311+G(2d,p)
 ****
 33  34 0
 6-311+G(2d,p)
 ****
 1  2  14  15  16  17  18  19  20  21  22  24  25  26 0
 3-21G
 ****
 27  35  36  37  38  39  40  41  42  43  44  45 0
 3-21G
 ****


