%nproc=1
%NoSave
%Mem=1900MB
#P OB98/GEN NMR

erre ene a

0 1
  C       -7.810     -23.134     -80.500
  O       -6.463     -23.381     -80.867
  P       -5.577     -24.444     -80.069
  C       -3.179     -25.453     -80.423
  O       -4.323     -24.835     -80.973
  C       -2.138     -25.647     -81.533
  O       -2.653     -26.533     -82.549
  C       -1.776     -24.323     -82.201
  O       -0.616     -23.763     -81.607
  C       -1.579     -24.726     -83.650
  O       -0.266     -25.282     -83.844
  C       -2.656     -25.825     -83.817
  N       -4.041     -25.403     -84.101
  C       -4.433     -25.166     -85.415
  O       -3.696     -25.315     -86.384
  N       -5.720     -24.718     -85.580
  C       -6.635     -24.537     -84.583
  O       -7.684     -23.916     -84.710
  C       -6.251     -25.060     -83.269
  C       -4.986     -25.440     -83.085
  O       -6.481     -25.764     -80.102
  O       -5.205     -24.055     -78.676
  H       -0.188     -26.048     -83.248
  H       -6.970     -25.867     -79.264
  H       -5.966     -24.411     -86.515
  H       -6.993     -25.067     -82.482
  H       -4.668     -25.795     -82.108
  H       -2.370     -26.538     -84.597
  H       -1.645     -23.864     -84.312
  H       -2.622     -23.625     -82.144
  H       -1.243     -26.113     -81.102
  H       -3.450     -26.417     -79.980
  H       -2.766     -24.832     -79.621
  P        0.028     -22.436     -82.227
  C        1.022     -20.283     -81.255
  O        0.376     -21.508     -80.968
  O       -0.765     -21.780     -83.309
  O        1.456     -22.935     -82.756
  H        1.409     -23.118     -83.717
  H        1.039     -19.674     -80.349
  H        0.486     -19.741     -82.040
  H        2.050     -20.475     -81.572
  H       -8.227     -22.395     -81.151
  H       -7.846     -22.781     -79.491
  H       -8.374     -24.040     -80.581

 3  4  5  6  7  8  9  10  11  12  13  23  28  29  30  31  32 0
 6-311+G(2d,p)
 ****
 33  34 0
 6-311+G(2d,p)
 ****
 1  2  14  15  16  17  18  19  20  21  22  24  25  26  27 0
 3-21G
 ****
 35  36  37  38  39  40  41  42  43  44  45 0
 3-21G
 ****


