%nproc=1
%NoSave
%Mem=1900MB
#P OB98/GEN NMR

erre ene a

0 1
  C     -201.879    -889.590     340.562
  O     -202.987    -890.390     340.172
  P     -202.838    -891.990     340.335
  C     -201.188    -893.760     339.381
  O     -201.653    -892.420     339.349
  C     -199.874    -893.900     338.628
  O     -198.841    -893.160     339.291
  C     -199.367    -895.340     338.512
  O     -200.093    -896.040     337.525
  C     -197.905    -895.100     338.180
  O     -197.724    -894.950     336.751
  C     -197.577    -893.790     338.920
  N     -196.733    -894.000     340.088
  C     -195.358    -893.800     339.874
  O     -194.951    -893.500     338.748
  N     -194.496    -894.000     340.926
  C     -194.972    -894.360     342.080
  N     -194.074    -894.530     343.094
  C     -196.401    -894.600     342.349
  C     -197.224    -894.410     341.309
  O     -204.146    -892.540     339.611
  O     -202.711    -892.460     341.741
  H     -197.761    -895.840     336.385
  H     -204.398    -893.410     339.978
  H     -196.736    -894.900     343.323
  H     -198.289    -894.560     341.402
  H     -197.077    -893.070     338.257
  H     -197.279    -895.940     338.480
  H     -199.455    -895.840     339.482
  H     -200.017    -893.450     337.617
  H     -193.098    -894.380     342.881
  H     -201.939    -894.410     338.922
  H     -194.339    -894.800     344.033
  H     -201.073    -894.060     340.441
  P     -199.996    -897.630     337.525
  C     -197.941    -899.150     337.704
  O     -198.466    -897.950     337.183
  O     -200.738    -898.020     336.158
  O     -200.568    -898.350     338.702
  H     -200.825    -898.990     336.090
  H     -196.961    -899.330     337.276
  H     -198.593    -900.000     337.444
  H     -197.848    -899.080     338.799
  H     -202.111    -888.558     340.403
  H     -201.023    -889.857     339.978
  H     -201.669    -889.753     341.599

 3  4  5  6  7  8  9  10  11  12  13  21  23  27  28  29  30  32 0
 6-311+G(2d,p)
 ****
 34  35 0
 6-311+G(2d,p)
 ****
 1  2  14  15  16  17  18  19  20  22  24  25  26 0
 3-21G
 ****
 31  33  36  37  38  39  40  41  42  43  44  45  46 0
 3-21G
 ****


