%nproc=1
%NoSave
%Mem=1900MB
#P OB98/GEN NMR

erre ene a

0 1
  C      257.875     203.828     -91.865
  O      257.542     202.526     -92.314
  P      257.090     202.355     -93.845
  C      254.709     203.411     -93.480
  O      255.491     202.277     -93.822
  C      253.440     203.455     -94.337
  O      253.761     203.924     -95.664
  C      252.764     202.105     -94.536
  O      252.029     201.707     -93.390
  C      251.915     202.379     -95.771
  O      250.710     203.073     -95.406
  C      252.835     203.311     -96.587
  N      253.542     202.622     -97.665
  C      252.771     202.241     -98.760
  O      251.564     202.459     -98.842
  N      253.439     201.579     -99.756
  C      254.753     201.213     -99.738
  O      255.290     200.582    -100.638
  C      255.507     201.615     -98.541
  C      254.878     202.291     -97.577
  O      257.568     200.856     -94.127
  O      257.677     203.388     -94.748
  H      257.585     200.323     -93.313
  H      250.314     203.398     -96.238
  H      252.906     201.312    -100.570
  H      256.552     201.334     -98.487
  H      255.417     202.586     -96.685
  H      252.254     204.131     -97.025
  H      251.621     201.464     -96.295
  H      253.516     201.341     -94.772
  H      252.744     204.170     -93.881
  H      255.298     204.315     -93.651
  H      254.450     203.356     -92.416
  P      252.525     200.369     -92.647
  C      251.166     198.799     -94.233
  O      251.401     199.262     -92.922
  O      252.315     200.771     -91.111
  O      253.920     199.971     -92.997
  H      251.483     201.245     -90.956
  H      250.653     197.835     -94.178
  H      252.101     198.669     -94.784
  H      250.526     199.508     -94.763
  H      258.155     203.789     -90.833
  H      257.029     204.472     -91.981
  H      258.693     204.206     -92.442

 3  4  5  6  7  8  9  10  11  12  13  24  28  29  30  31  32 0
 6-311+G(2d,p)
 ****
 33  34 0
 6-311+G(2d,p)
 ****
 1  2  14  15  16  17  18  19  20  21  22  23  25  26  27 0
 3-21G
 ****
 35  36  37  38  39  40  41  42  43  44  45 0
 3-21G
 ****


