%nproc=1
%NoSave
%Mem=1900MB
#P OB98/GEN NMR

erre ene a

0 1
  C      -76.447    -190.706     170.308
  O      -76.379    -191.273     169.019
  H      -77.498    -190.541     170.560
  H      -75.929    -189.744     170.312
  H      -76.006    -191.365     171.059
  P      -75.039    -192.031     168.581
  C      -73.876    -189.748     168.258
  O      -73.797    -191.044     168.841
  C      -72.524    -189.298     167.702
  O      -71.590    -189.115     168.789
  C      -71.906    -190.328     166.754
  O      -72.318    -190.209     165.404
  C      -70.415    -190.035     166.900
  O      -69.991    -189.020     165.974
  C      -70.290    -189.531     168.342
  N      -66.280    -191.150     171.067
  C      -66.334    -190.140     170.123
  N      -65.166    -189.519     169.851
  N      -67.431    -189.800     169.501
  C      -68.497    -190.576     169.804
  C      -68.557    -191.614     170.708
  C      -67.354    -191.939     171.445
  O      -67.257    -192.811     172.304
  N      -69.798    -192.201     170.722
  C      -70.458    -191.575     169.765
  N      -69.735    -190.530     169.239
  O      -75.131    -192.053     166.978
  O      -74.879    -193.421     169.119
  H      -69.033    -188.876     166.103
  H      -74.693    -192.853     166.639
  H      -65.412    -191.348     171.534
  H      -71.469    -191.804     169.451
  H      -69.637    -188.650     168.402
  H      -69.817    -190.926     166.685
  H      -64.279    -189.798     170.236
  H      -72.088    -191.345     167.116
  H      -65.125    -188.907     169.032
  H      -72.641    -188.322     167.212
  H      -74.200    -189.070     169.049
  H      -74.637    -189.730     167.474
  P      -72.393    -191.490     164.452
  C      -69.854    -191.112     163.905
  O      -70.909    -192.007     164.185
  O      -72.829    -190.870     163.045
  O      -73.324    -192.570     164.900
  H      -73.790    -190.975     162.902
  H      -68.948    -191.663     163.759
  H      -69.732    -190.436     164.726
  H      -70.082    -190.558     163.018

 6  7  8  9  10  11  12  13  14  15  26  29  33  34 0
 6-311+G(2d,p)
 ****
 36  38  39  40  41 0
 6-311+G(2d,p)
 ****
 1  2  3  4  5  16  17  18  19  20  21  22  23  24  25 0
 3-21G
 ****
 27  28  30  31  32  35  37  42  43  44  45  46  47 0
 3-21G
 ****
 48  49 0
 3-21G
 ****


