%nproc=1
%NoSave
%Mem=1900MB
#P OB98/GEN NMR

erre ene a

0 1
  C      149.605     526.940     458.965
  O      148.484     527.685     459.406
  H      150.490     527.588     459.025
  H      149.475     526.633     457.931
  H      149.763     526.072     459.607
  P      147.037     526.996     459.348
  C      147.365     526.368     461.840
  O      146.995     525.925     460.537
  C      146.488     525.713     462.905
  O      146.715     524.284     462.923
  C      146.749     526.198     464.325
  O      146.188     527.478     464.529
  C      146.106     525.073     465.128
  O      144.683     525.212     465.163
  C      146.515     523.832     464.300
  N      147.715     523.148     464.800
  C      147.504     521.915     465.407
  O      146.357     521.459     465.529
  N      148.591     521.231     465.907
  C      149.782     521.715     465.750
  N      150.832     521.002     466.254
  C      150.054     523.011     465.067
  C      148.983     523.675     464.637
  O      146.619     526.459     458.018
  O      146.042     528.147     459.856
  H      144.373     525.000     464.260
  H      145.678     528.639     459.100
  H      151.076     523.370     464.951
  H      149.095     524.619     464.123
  H      145.695     523.105     464.263
  H      146.465     525.048     466.169
  H      147.827     526.207     464.533
  H      145.431     525.859     462.624
  H      150.596     520.108     466.692
  H      147.222     527.467     461.854
  H      151.803     521.187     466.055
  H      148.416     526.161     462.041
  P      146.634     528.403     465.762
  C      147.249     530.155     463.977
  O      147.673     529.482     465.144
  O      147.134     527.668     466.959
  O      145.332     529.311     466.048
  H      144.653     528.776     466.538
  H      148.011     530.837     463.662
  H      146.349     530.696     464.184
  H      147.066     529.442     463.201

 6  7  8  9  10  11  12  13  14  15  16  26  30  31  32  33  35 0
 6-311+G(2d,p)
 ****
 37  38 0
 6-311+G(2d,p)
 ****
 1  2  3  4  5  17  18  19  20  21  22  23  24  25 0
 3-21G
 ****
 27  28  29  34  36  39  40  41  42  43  44  45  46 0
 3-21G
 ****


