%nproc=1
%NoSave
%Mem=1900MB
#P OB98/GEN NMR

erre ene a

0 1
  C      284.197    -604.905     990.401
  O      282.813    -605.152     990.424
  H      284.560    -604.830     991.430
  H      284.401    -603.956     989.887
  H      284.718    -605.714     989.900
  P      282.084    -605.384     989.006
  C      282.129    -602.797     988.718
  O      282.395    -604.075     988.125
  C      281.811    -601.766     987.626
  O      283.046    -601.401     986.945
  C      280.808    -602.266     986.550
  O      279.999    -601.159     986.166
  C      281.724    -602.630     985.392
  O      281.040    -602.640     984.134
  C      282.772    -601.529     985.530
  N      286.258    -599.582     982.456
  C      285.168    -598.984     983.075
  N      284.995    -597.672     982.819
  N      284.349    -599.633     983.842
  C      284.684    -600.938     984.025
  C      285.728    -601.648     983.481
  C      286.618    -600.929     982.592
  O      287.595    -601.395     981.999
  N      285.709    -602.947     983.887
  C      284.646    -603.028     984.676
  N      283.988    -601.853     984.796
  O      280.530    -605.227     989.387
  O      282.364    -606.684     988.345
  H      280.439    -603.407     984.123
  H      280.133    -606.096     989.582
  H      286.859    -599.042     981.851
  H      284.321    -603.942     985.179
  H      282.423    -600.560     985.155
  H      282.166    -603.620     985.564
  H      285.612    -597.107     982.262
  H      280.177    -603.091     986.876
  H      284.217    -597.212     983.298
  H      281.436    -600.864     988.115
  H      283.026    -602.473     989.266
  H      281.280    -602.888     989.403
  P      278.510    -601.044     986.777
  C      277.080    -601.425     984.628
  O      277.542    -601.940     985.872
  O      278.095    -599.554     986.394
  O      278.454    -601.265     988.248
  H      277.442    -599.209     987.027
  H      276.448    -602.148     984.156
  H      277.917    -601.216     983.996
  H      276.527    -600.525     984.798

 6  7  8  9  10  11  12  13  14  15  26  29  33  34 0
 6-311+G(2d,p)
 ****
 36  38  39  40  41 0
 6-311+G(2d,p)
 ****
 1  2  3  4  5  16  17  18  19  20  21  22  23  24  25 0
 3-21G
 ****
 27  28  30  31  32  35  37  42  43  44  45  46  47 0
 3-21G
 ****
 48  49 0
 3-21G
 ****


