%nproc=1
%NoSave
%Mem=1900MB
#P OB98/GEN NMR

erre ene a

0 1
  C     -973.198    -895.578    -665.545
  O     -973.914    -895.398    -666.746
  H     -973.861    -895.338    -664.704
  H     -972.328    -894.908    -665.506
  H     -972.867    -896.618    -665.444
  P     -973.177    -895.868    -668.100
  C     -975.100    -897.448    -668.913
  O     -974.344    -896.268    -669.117
  C     -976.506    -897.328    -669.502
  O     -977.388    -896.808    -668.492
  C     -976.559    -896.378    -670.723
  O     -977.527    -896.878    -671.630
  C     -977.072    -895.068    -670.115
  O     -977.702    -894.238    -671.081
  C     -978.024    -895.588    -669.022
  N     -978.258    -894.608    -667.971
  C     -979.610    -894.248    -667.713
  O     -980.512    -894.768    -668.402
  N     -979.886    -893.328    -666.772
  C     -978.899    -892.748    -666.143
  N     -979.254    -891.798    -665.226
  C     -977.476    -893.038    -666.393
  C     -977.236    -893.988    -667.304
  O     -972.545    -897.258    -667.660
  O     -972.185    -894.868    -668.634
  H     -978.094    -893.448    -670.607
  H     -973.158    -897.828    -667.155
  H     -976.699    -892.508    -665.857
  H     -976.222    -894.288    -667.531
  H     -978.993    -895.908    -669.446
  H     -976.270    -894.508    -669.667
  H     -975.594    -896.248    -671.207
  H     -976.870    -898.328    -669.767
  H     -980.231    -891.598    -665.102
  H     -975.180    -897.688    -667.848
  H     -978.574    -891.238    -664.723
  H     -974.564    -898.278    -669.388
  P     -977.082    -897.238    -673.134
  C     -978.230    -899.538    -673.564
  O     -978.212    -898.138    -673.846
  O     -975.702    -897.758    -673.294
  O     -977.247    -895.838    -673.890
  H     -976.489    -895.728    -674.496
  H     -979.029    -900.000    -674.105
  H     -978.375    -899.688    -672.515
  H     -977.299    -899.973    -673.862

 6  7  8  9  10  11  12  13  14  15  16  26  30  31  32  33  35 0
 6-311+G(2d,p)
 ****
 37  38 0
 6-311+G(2d,p)
 ****
 1  2  3  4  5  17  18  19  20  21  22  23  24  25 0
 3-21G
 ****
 27  28  29  34  36  39  40  41  42  43  44  45  46 0
 3-21G
 ****


