%nproc=1
%NoSave
%Mem=1900MB
#P OB98/GEN NMR

erre ene a

0 1
  C      260.694     710.948     128.009
  O      261.532     711.630     127.061
  P      261.704     713.215     127.230
  C      260.627     714.096     125.027
  O      260.514     713.946     126.432
  C      259.860     715.336     124.559
  O      258.440     715.101     124.573
  C      260.061     716.541     125.460
  O      261.322     717.154     125.204
  C      258.861     717.415     125.110
  O      259.167     718.318     124.019
  C      257.788     716.379     124.689
  N      256.673     716.327     125.612
  C      255.625     717.210     125.356
  O      255.689     717.995     124.403
  N      254.541     717.204     126.191
  C      254.525     716.409     127.223
  N      253.419     716.441     128.031
  C      255.621     715.477     127.548
  C      256.659     715.479     126.710
  O      262.994     713.538     126.343
  O      261.878     713.659     128.649
  H      258.477     719.015     124.060
  H      263.495     714.282     126.734
  H      255.564     714.822     128.414
  H      257.514     714.833     126.867
  H      257.407     716.631     123.694
  H      258.565     718.034     125.956
  H      260.006     716.235     126.516
  H      260.173     715.579     123.528
  H      252.684     717.106     127.775
  H      260.246     713.203     124.513
  H      253.308     715.861     128.853
  H      261.692     714.172     124.759
  P      262.420     717.134     126.364
  C      262.506     719.643     126.897
  O      262.046     718.372     127.318
  O      263.719     717.690     125.594
  O      262.685     715.829     127.039
  H      264.499     717.633     126.180
  H      262.010     720.415     127.503
  H      262.255     719.827     125.855
  H      263.585     719.719     127.051
  H      260.670     709.904     127.778
  H      259.702     711.347     127.960
  H      261.085     711.086     128.995

 3  4  5  6  7  8  9  10  11  12  13  21  23  27  28  29  30  32 0
 6-311+G(2d,p)
 ****
 34  35 0
 6-311+G(2d,p)
 ****
 1  2  14  15  16  17  18  19  20  22  24  25  26 0
 3-21G
 ****
 31  33  36  37  38  39  40  41  42  43  44  45  46 0
 3-21G
 ****


