%nproc=1
%NoSave
%Mem=1900MB
#P OB98/GEN NMR

erre ene a

0 1
  C     -715.138      93.911    -207.512
  O     -714.238      93.337    -208.450
  P     -713.318      94.339    -209.294
  C     -714.661      93.764    -211.457
  O     -714.165      94.778    -210.589
  C     -715.585      94.374    -212.504
  O     -716.777      94.888    -211.866
  C     -714.990      95.556    -213.262
  O     -714.057      95.116    -214.240
  C     -716.258      96.180    -213.844
  O     -716.705      95.447    -214.995
  C     -717.256      96.004    -212.677
  N     -718.876     100.864    -212.480
  C     -718.868      99.953    -213.480
  N     -718.402      98.683    -213.472
  C     -717.902      98.381    -212.254
  C     -717.810      99.209    -211.143
  C     -718.335     100.506    -211.286
  N     -718.336     101.431    -210.270
  N     -717.215      98.567    -210.086
  C     -716.955      97.354    -210.544
  N     -717.360      97.183    -211.848
  O     -712.187      93.381    -209.900
  O     -712.728      95.470    -208.505
  H     -717.543      95.860    -215.287
  H     -711.328      93.848    -209.970
  H     -719.305     100.277    -214.430
  H     -716.483      96.557    -209.977
  H     -718.259      95.749    -213.033
  H     -716.122      97.230    -214.150
  H     -714.497      96.252    -212.576
  H     -715.882      93.580    -213.205
  H     -715.224      93.029    -210.872
  H     -718.587     102.378    -210.499
  H     -717.809     101.208    -209.430
  H     -713.814      93.249    -211.921
  P     -713.169      96.238    -214.973
  C     -714.427      95.574    -217.123
  O     -714.053      96.626    -216.262
  O     -711.990      95.357    -215.603
  O     -712.736      97.366    -214.094
  H     -712.345      94.587    -216.078
  H     -715.052      95.963    -217.911
  H     -714.984      94.814    -216.569
  H     -713.524      95.123    -217.566
  H     -715.686      93.134    -207.022
  H     -715.818      94.560    -208.022
  H     -714.587      94.471    -206.786

 3  4  5  6  7  8  9  10  11  12  22  25  29  30  31  32 0
 6-311+G(2d,p)
 ****
 33  36  37 0
 6-311+G(2d,p)
 ****
 1  2  13  14  15  16  17  18  19  20  21  23  24  26 0
 3-21G
 ****
 27  28  34  35  38  39  40  41  42  43  44  45  46  47  48 0
 3-21G
 ****


