%nproc=1
%NoSave
%Mem=1900MB
#P OB98/GEN NMR

erre ene a

0 1
  C      321.375     138.367    -513.156
  O      321.948     139.491    -513.798
  P      322.337     140.754    -512.885
  C      323.881     141.975    -514.578
  O      322.637     141.968    -513.888
  C      324.290     143.396    -514.975
  O      323.418     143.851    -516.044
  C      324.222     144.409    -513.837
  O      325.313     145.323    -513.992
  C      322.924     145.152    -514.102
  O      322.932     146.454    -513.521
  C      322.872     145.121    -515.637
  N      321.519     145.307    -516.149
  C      320.979     146.596    -516.075
  O      321.616     147.497    -515.525
  N      319.723     146.823    -516.575
  C      319.016     145.825    -517.014
  N      317.773     146.093    -517.499
  C      319.498     144.422    -516.993
  C      320.746     144.249    -516.573
  O      323.784     140.361    -512.329
  O      321.364     141.044    -511.783
  H      322.179     146.961    -513.901
  H      323.925     140.727    -511.430
  H      318.852     143.626    -517.333
  H      321.194     143.257    -516.545
  H      323.507     145.912    -516.059
  H      322.082     144.589    -513.677
  H      324.267     143.942    -512.846
  H      325.308     143.353    -515.389
  H      317.467     147.057    -517.492
  H      323.785     141.374    -515.489
  H      317.156     145.381    -517.862
  H      324.648     141.516    -513.942
  P      326.326     145.495    -512.757
  C      328.166     144.827    -514.419
  O      327.756     145.745    -513.429
  O      326.469     143.973    -512.250
  O      325.926     146.395    -511.639
  H      327.024     143.949    -511.447
  H      329.087     145.187    -514.879
  H      327.396     144.722    -515.184
  H      328.361     143.842    -513.960
  H      321.169     137.608    -513.882
  H      320.464     138.657    -512.675
  H      322.059     137.986    -512.426

 3  4  5  6  7  8  9  10  11  12  13  21  23  27  28  29  30  32 0
 6-311+G(2d,p)
 ****
 34  35 0
 6-311+G(2d,p)
 ****
 1  2  14  15  16  17  18  19  20  22  24  25  26 0
 3-21G
 ****
 31  33  36  37  38  39  40  41  42  43  44  45  46 0
 3-21G
 ****


