%nproc=1
%NoSave
%Mem=1900MB
#P OB98/GEN NMR

erre ene a

0 1
  C      -28.500      -9.977     168.522
  O      -29.697      -9.418     169.025
  H      -27.870      -9.188     168.105
  H      -27.965     -10.458     169.345
  H      -28.717     -10.726     167.756
  P      -30.720      -8.813     167.947
  C      -30.397      -6.261     168.322
  O      -31.207      -7.406     168.550
  C      -30.172      -5.498     169.627
  O      -31.455      -5.299     170.279
  C      -29.258      -6.230     170.613
  O      -28.426      -5.273     171.271
  C      -30.229      -6.842     171.610
  O      -29.627      -7.076     172.877
  C      -31.341      -5.798     171.626
  N      -35.405      -5.052     174.626
  C      -34.352      -4.265     174.319
  N      -33.312      -4.538     173.504
  C      -33.457      -5.751     172.942
  C      -34.473      -6.666     173.158
  C      -35.482      -6.279     174.056
  N      -36.539      -7.089     174.403
  N      -34.252      -7.817     172.426
  C      -33.123      -7.597     171.781
  N      -32.604      -6.365     172.064
  O      -32.001      -9.761     168.123
  O      -30.235      -8.782     166.538
  H      -30.339      -7.177     173.541
  H      -31.853     -10.599     167.645
  H      -34.339      -3.289     174.797
  H      -32.638      -8.294     171.111
  H      -31.116      -4.954     172.291
  H      -30.599      -7.799     171.224
  H      -28.634      -6.985     170.132
  H      -29.782      -4.502     169.388
  H      -30.899      -5.609     167.599
  H      -37.185      -6.753     175.097
  H      -36.580      -8.029     174.036
  H      -29.433      -6.578     167.909
  P      -26.885      -5.228     170.825
  C      -26.068      -5.773     173.223
  O      -25.989      -4.891     172.113
  O      -26.794      -3.897     169.940
  O      -26.453      -6.429     170.048
  H      -26.352      -4.090     169.092
  H      -25.422      -5.425     174.002
  H      -25.767      -6.754     172.921
  H      -27.075      -5.804     173.583

 6  7  8  9  10  11  12  13  14  15  25  28  32  33  34  35 0
 6-311+G(2d,p)
 ****
 36  39  40 0
 6-311+G(2d,p)
 ****
 1  2  3  4  5  16  17  18  19  20  21  22  23  24 0
 3-21G
 ****
 26  27  29  30  31  37  38  41  42  43  44  45  46  47 0
 3-21G
 ****
 48 0
 3-21G
 ****


