%nproc=1
%NoSave
%Mem=1900MB
#P OB98/GEN NMR

erre ene a

0 1
  C     -119.938    -473.317      71.173
  O     -120.862    -472.601      70.376
  H     -120.241    -473.235      72.219
  H     -118.937    -472.894      71.058
  H     -119.933    -474.374      70.889
  P     -120.599    -472.616      68.794
  C     -121.445    -474.786      67.624
  O     -121.767    -473.513      68.158
  C     -122.675    -475.701      67.641
  O     -123.106    -475.878      69.023
  C     -123.880    -475.136      66.870
  O     -124.653    -476.249      66.383
  C     -124.647    -474.427      67.973
  O     -125.956    -474.111      67.557
  C     -124.486    -475.452      69.092
  N     -128.176    -473.767      72.205
  C     -128.219    -474.291      70.961
  N     -127.195    -474.728      70.200
  C     -126.029    -474.606      70.855
  C     -125.828    -474.099      72.131
  C     -126.973    -473.660      72.819
  N     -126.932    -473.118      74.083
  N     -124.486    -474.129      72.462
  C     -123.888    -474.645      71.406
  N     -124.780    -474.940      70.409
  O     -119.294    -473.528      68.646
  O     -120.420    -471.276      68.160
  H     -125.967    -473.268      67.053
  H     -118.497    -472.967      68.608
  H     -129.207    -474.364      70.515
  H     -122.824    -474.817      71.306
  H     -125.114    -476.334      68.931
  H     -124.163    -473.480      68.238
  H     -123.598    -474.494      66.032
  H     -122.390    -476.692      67.268
  H     -120.647    -475.225      68.232
  H     -121.090    -474.672      66.596
  H     -127.796    -472.814      74.501
  H     -126.042    -473.016      74.545
  P     -124.132    -477.060      65.099
  C     -122.021    -478.548      64.661
  O     -123.021    -478.117      65.575
  O     -123.239    -475.959      64.348
  O     -125.193    -477.588      64.190
  H     -123.229    -476.145      63.390
  H     -121.371    -479.246      65.146
  H     -121.453    -477.704      64.329
  H     -122.486    -479.018      63.820

 6  7  8  9  10  11  12  13  14  15  25  28  32  33  34  35 0
 6-311+G(2d,p)
 ****
 36  37  40 0
 6-311+G(2d,p)
 ****
 1  2  3  4  5  16  17  18  19  20  21  22  23  24 0
 3-21G
 ****
 26  27  29  30  31  38  39 41  42  43  44  45  46  47  48 0
 3-21G
 ****


