%nproc=1
%NoSave
%Mem=1900MB
#P OB98/GEN NMR

erre ene a

0 1
  C      279.846    -570.811    -249.525
  O      278.906    -569.781    -249.180
  P      278.050    -569.963    -247.836
  C      277.907    -567.373    -247.654
  O      277.217    -568.612    -247.590
  C      277.040    -566.315    -248.359
  O      276.833    -566.636    -249.749
  C      275.651    -566.172    -247.757
  O      275.657    -565.332    -246.613
  C      274.911    -565.502    -248.896
  O      275.198    -564.086    -248.902
  C      275.504    -566.180    -250.125
  N      271.936    -567.622    -253.422
  C      272.512    -566.374    -253.215
  N      272.081    -565.369    -254.008
  N      273.441    -566.139    -252.309
  C      273.787    -567.250    -251.600
  C      273.278    -568.533    -251.702
  C      272.252    -568.769    -252.696
  O      271.696    -569.835    -252.909
  N      273.882    -569.371    -250.818
  C      274.741    -568.607    -250.167
  N      274.716    -567.305    -250.607
  O      279.176    -569.900    -246.689
  O      277.260    -571.226    -247.760
  H      274.707    -563.700    -249.654
  H      278.879    -570.415    -245.914
  H      271.229    -567.738    -254.119
  H      275.418    -568.957    -249.397
  H      275.622    -565.490    -250.975
  H      273.812    -565.600    -248.797
  H      271.411    -565.499    -254.760
  H      275.202    -567.164    -247.534
  H      272.520    -564.460    -253.897
  H      277.559    -565.343    -248.297
  H      278.854    -567.485    -248.203
  H      278.174    -567.054    -246.643
  P      275.735    -566.023    -245.159
  C      277.470    -564.187    -244.550
  O      276.312    -564.913    -244.171
  O      276.946    -567.062    -245.329
  O      274.476    -566.704    -244.724
  H      276.777    -567.847    -244.768
  H      277.614    -563.369    -243.835
  H      277.345    -563.751    -245.549
  H      278.345    -564.838    -244.542
  H      280.338    -570.553    -250.439
  H      279.329    -571.739    -249.648
  H      280.571    -570.908    -248.744

 3  4  5  6  7  8  9  10  11  12  23  26  30  31 0
 6-311+G(2d,p)
 ****
 33  35  36  37  38 0
 6-311+G(2d,p)
 ****
 1  2  13  14  15  16  17  18  19  20  21  22  24  25 0
 3-21G
 ****
 27  28  29  32  34  39  40  41  42  43  44  45  46  47  48  49 0
 3-21G
 ****


