%nproc=1
%NoSave
%Mem=1900MB
#P OB98/GEN NMR

erre ene a

0 1
  C     -233.957     204.129    -572.083
  O     -232.969     203.555    -572.917
  H     -233.527     204.302    -571.093
  H     -234.810     203.453    -571.978
  H     -234.291     205.087    -572.491
  P     -233.363     203.202    -574.428
  C     -233.381     205.771    -574.690
  O     -234.000     204.538    -575.039
  C     -233.838     206.870    -575.643
  O     -233.302     206.650    -576.963
  C     -235.355     206.967    -575.802
  O     -235.923     207.679    -574.716
  C     -235.446     207.710    -577.125
  O     -235.167     209.109    -576.916
  C     -234.310     207.052    -577.929
  N     -237.009     205.385    -581.884
  C     -236.891     206.661    -581.362
  N     -237.636     207.619    -581.959
  N     -236.131     206.963    -580.340
  C     -235.504     205.889    -579.807
  C     -235.556     204.580    -580.226
  C     -236.351     204.266    -581.390
  O     -236.470     203.154    -581.891
  N     -234.833     203.761    -579.389
  C     -234.320     204.580    -578.497
  N     -234.706     205.885    -578.693
  O     -234.210     201.981    -574.625
  O     -231.956     203.085    -575.180
  H     -234.328     209.157    -576.426
  H     -231.632     202.168    -575.185
  H     -237.621     205.214    -582.662
  H     -233.659     204.284    -577.686
  H     -233.836     207.751    -578.626
  H     -236.430     207.641    -577.588
  H     -238.426     207.391    -582.544
  H     -235.813     205.977    -575.929
  H     -237.600     208.547    -581.562
  H     -233.420     207.821    -575.284
  H     -232.299     205.627    -574.760
  H     -233.636     206.047    -573.661
  P     -237.482     207.528    -574.351
  C     -237.171     205.253    -573.159
  O     -237.729     205.945    -574.266
  O     -238.412     208.256    -575.256
  O     -237.578     207.971    -572.822
  H     -237.726     208.943    -572.702
  H     -237.412     204.213    -573.230
  H     -237.572     205.651    -572.250
  H     -236.108     205.374    -573.162

 6  7  8  9  10  11  12  13  14  15  26  29  33  34 0
 6-311+G(2d,p)
 ****
 36  38  39  40  41 0
 6-311+G(2d,p)
 ****
 1  2  3  4  5  16  17  18  19  20  21  22  23  24  25 0
 3-21G
 ****
 27  28  30  31  32  35  37  42  43  44  45  46  47 0
 3-21G
 ****
 48  49 0
 3-21G
 ****


