%nproc=1
%NoSave
%Mem=1900MB
#P OB98/GEN NMR

erre ene a

0 1
  C      243.649    -188.041    -250.048
  O      242.559    -187.162    -249.871
  H      244.519    -187.464    -250.373
  H      243.413    -188.785    -250.814
  H      243.888    -188.542    -249.104
  P      241.171    -187.813    -249.395
  C      238.807    -187.837    -250.466
  O      240.211    -187.810    -250.687
  C      238.058    -187.643    -251.785
  O      238.353    -186.316    -252.306
  C      238.436    -188.663    -252.872
  O      237.261    -189.004    -253.614
  C      239.375    -187.874    -253.769
  O      239.438    -188.411    -255.084
  C      238.748    -186.486    -253.681
  N      239.953    -183.432    -257.496
  C      238.925    -184.342    -257.369
  N      238.087    -184.469    -258.418
  N      238.734    -185.075    -256.301
  C      239.633    -184.829    -255.317
  C      240.703    -183.963    -255.324
  C      240.912    -183.176    -256.520
  O      241.822    -182.370    -256.699
  N      241.400    -184.032    -254.143
  C      240.753    -184.938    -253.424
  N      239.672    -185.442    -254.097
  O      240.530    -186.682    -248.460
  O      241.281    -189.127    -248.699
  H      239.727    -189.347    -255.014
  H      239.973    -187.082    -247.764
  H      240.063    -182.898    -258.345
  H      241.021    -185.255    -252.426
  H      237.855    -186.387    -254.309
  H      240.386    -187.874    -253.346
  H      238.152    -183.914    -259.261
  H      238.897    -189.571    -252.478
  H      237.314    -185.121    -258.345
  H      236.980    -187.669    -251.580
  H      238.538    -187.035    -249.773
  H      238.534    -188.800    -250.023
  P      236.801    -190.538    -253.612
  C      237.028    -192.605    -255.170
  O      237.406    -191.258    -254.915
  O      235.231    -190.444    -253.936
  O      237.039    -191.241    -252.316
  H      234.715    -190.655    -253.135
  H      237.506    -192.946    -256.064
  H      235.966    -192.661    -255.290
  H      237.327    -193.221    -254.348

 6  7  8  9  10  11  12  13  14  15  26  29  33  34 0
 6-311+G(2d,p)
 ****
 36  38  39  40  41 0
 6-311+G(2d,p)
 ****
 1  2  3  4  5  16  17  18  19  20  21  22  23  24  25 0
 3-21G
 ****
 27  28  30  31  32  35  37  42  43  44  45  46  47 0
 3-21G
 ****
 48  49 0
 3-21G
 ****


