%nproc=1
%NoSave
%Mem=1900MB
#P OB98/GEN NMR

erre ene a

0 1
  C     -240.735    -128.788    -357.086
  O     -239.429    -128.826    -357.668
  P     -238.696    -130.246    -357.797
  C     -236.450    -130.111    -356.520
  O     -237.098    -129.999    -357.788
  C     -236.104    -128.714    -355.973
  O     -237.348    -128.069    -355.551
  C     -235.201    -128.706    -354.733
  O     -233.787    -128.670    -354.931
  C     -235.580    -127.380    -354.090
  O     -234.852    -126.309    -354.709
  C     -237.066    -127.237    -354.406
  N     -239.357    -125.615    -350.109
  C     -238.581    -124.983    -351.016
  N     -238.005    -125.491    -352.133
  C     -238.323    -126.780    -352.285
  C     -239.119    -127.556    -351.454
  C     -239.645    -126.929    -350.313
  N     -240.440    -127.574    -349.395
  N     -239.217    -128.857    -351.937
  C     -238.471    -128.856    -353.022
  N     -237.933    -127.632    -353.296
  O     -239.193    -131.143    -358.879
  O     -238.944    -130.895    -356.352
  H     -235.013    -125.509    -354.165
  H     -239.092    -131.857    -356.460
  H     -238.379    -123.934    -350.810
  H     -238.306    -129.728    -353.656
  H     -237.350    -126.211    -354.670
  H     -235.334    -127.348    -353.016
  H     -235.455    -129.538    -354.058
  H     -235.666    -128.106    -356.763
  H     -235.524    -130.689    -356.637
  H     -240.746    -127.060    -348.583
  H     -240.615    -128.561    -349.496
  H     -237.102    -130.679    -355.858
  P     -232.802    -129.624    -354.106
  C     -231.132    -127.677    -353.633
  O     -231.352    -128.939    -354.194
  O     -232.838    -131.063    -354.492
  O     -233.231    -129.339    -352.589
  H     -233.018    -128.443    -352.275
  H     -230.051    -127.474    -353.607
  H     -231.503    -127.634    -352.601
  H     -231.612    -126.905    -354.247
  H     -241.089    -127.778    -357.070
  H     -240.691    -129.167    -356.086
  H     -241.402    -129.390    -357.667

 3  4  5  6  7  8  9  10  11  12  22  25  29  30  31  32 0
 6-311+G(2d,p)
 ****
 33  36  37 0
 6-311+G(2d,p)
 ****
 1  2  13  14  15  16  17  18  19  20  21  23  24  26 0
 3-21G
 ****
 27  28  34  35  38  39  40  41  42  43  44  45  46  47  48 0
 3-21G
 ****


