%nproc=1
%NoSave
%Mem=1900MB
#P OB98/GEN NMR

erre ene a

0 1
  C        9.742      38.362     -20.158
  O       11.073      38.614     -20.621
  P       11.578      37.736     -21.872
  C       14.047      37.384     -21.125
  O       13.152      38.004     -22.040
  C       15.228      38.302     -20.821
  O       14.845      39.360     -19.924
  C       16.399      37.609     -20.139
  O       17.200      36.894     -21.066
  C       17.161      38.801     -19.576
  O       17.994      39.377     -20.599
  C       16.029      39.769     -19.196
  N       17.693      40.971     -14.562
  C       18.304      41.129     -15.791
  N       19.521      41.717     -15.785
  N       17.772      40.748     -16.921
  C       16.539      40.204     -16.777
  C       15.831      39.992     -15.617
  C       16.446      40.389     -14.369
  O       15.963      40.242     -13.252
  N       14.609      39.423     -15.871
  C       14.565      39.317     -17.184
  N       15.720      39.765     -17.780
  O       10.939      38.500     -23.126
  O       11.163      36.305     -21.815
  H       18.695      38.725     -20.798
  H       10.809      37.876     -23.865
  H       18.153      41.276     -13.723
  H       13.726      38.930     -17.750
  H       16.255      40.798     -19.496
  H       17.820      38.528     -18.747
  H       19.957      42.100     -14.961
  H       16.051      36.970     -19.318
  H       19.967      41.874     -16.682
  H       15.563      38.753     -21.767
  H       14.416      36.447     -21.546
  H       13.501      37.131     -20.212
  P       17.699      35.431     -20.630
  C       19.969      35.213     -21.865
  O       18.591      34.901     -21.849
  O       16.364      34.553     -20.713
  O       18.327      35.371     -19.278
  H       16.408      33.812     -20.079
  H       20.416      35.089     -20.875
  H       20.109      36.243     -22.204
  H       20.475      34.541     -22.564
  H        9.525      39.003     -19.329
  H        9.659      37.341     -19.850
  H        9.047      38.554     -20.949

 3  4  5  6  7  8  9  10  11  12  23  26  30  31  33  0
 6-311+G(2d,p)
 ****
 35  36  37  38 0
 6-311+G(2d,p)
 ****
 1  2  13  14  15  16  17  18  19  20  21  22  24  25  27  28  29 0
 3-21G
 ****
 32  34  39  40  41  42  43  44  45  46  47  48  49 0
 3-21G
 ****


