%nproc=1
%NoSave
%Mem=1900MB
#P OB98/GEN NMR

erre ene a

0 1
  C     -339.170     230.941    -629.513
  O     -338.294     230.602    -628.458
  H     -338.769     230.557    -630.449
  H     -339.245     232.032    -629.590
  H     -340.162     230.513    -629.348
  P     -338.860     230.716    -626.967
  C     -336.380     231.263    -626.394
  O     -337.585     230.616    -625.983
  C     -335.197     230.687    -625.616
  O     -335.432     230.866    -624.192
  C     -334.933     229.197    -625.865
  O     -333.521     228.967    -625.861
  C     -335.525     228.545    -624.628
  O     -334.959     227.256    -624.370
  C     -335.184     229.595    -623.568
  N     -336.011     226.382    -619.797
  C     -335.017     226.411    -620.754
  N     -334.139     225.382    -620.748
  N     -334.903     227.352    -621.651
  C     -335.839     228.325    -621.525
  C     -336.872     228.422    -620.621
  C     -337.005     227.357    -619.655
  O     -337.871     227.282    -618.790
  N     -337.636     229.540    -620.872
  C     -337.077     230.097    -621.945
  N     -335.986     229.411    -622.371
  O     -339.591     229.304    -626.764
  O     -339.780     231.862    -626.709
  H     -333.999     227.306    -624.545
  H     -340.544     229.394    -626.966
  H     -336.077     225.617    -619.142
  H     -337.441     230.994    -622.429
  H     -334.126     229.554    -623.262
  H     -336.604     228.434    -624.739
  H     -334.160     224.624    -620.080
  H     -335.381     228.815    -626.794
  H     -333.386     225.400    -621.429
  H     -334.295     231.274    -625.872
  H     -336.463     232.335    -626.198
  H     -336.245     231.116    -627.474
  P     -332.737     229.118    -627.263
  C     -331.180     227.052    -626.862
  O     -331.276     228.449    -627.098
  O     -332.423     230.693    -627.329
  O     -333.511     228.662    -628.452
  H     -332.459     230.988    -628.247
  H     -330.150     226.774    -626.778
  H     -331.627     226.521    -627.676
  H     -331.690     226.808    -625.954

 6  7  8  9  10  11  12  13  14  15  26  29  33  34 0
 6-311+G(2d,p)
 ****
 36  38  39  40  41 0
 6-311+G(2d,p)
 ****
 1  2  3  4  5  16  17  18  19  20  21  22  23  24  25 0
 3-21G
 ****
 27  28  30  31  32  35  37  42  43  44  45  46  47 0
 3-21G
 ****
 48  49 0
 3-21G
 ****


