%nproc=1
%NoSave
%Mem=1900MB
#P OB98/GEN NMR

erre ene a

0 1
  C     -296.583     648.016    -391.632
  O     -297.024     646.953    -390.812
  H     -296.228     648.824    -390.993
  H     -297.400     648.389    -392.254
  H     -295.751     647.686    -392.266
  P     -297.634     645.645    -391.514
  C     -296.711     644.023    -389.731
  O     -297.870     644.575    -390.336
  C     -297.058     643.449    -388.355
  O     -297.455     644.505    -387.462
  C     -298.204     642.443    -388.369
  O     -297.740     641.160    -388.765
  C     -298.630     642.480    -386.910
  O     -297.691     641.735    -386.110
  C     -298.510     643.990    -386.599
  N     -302.932     645.503    -384.612
  C     -302.013     644.593    -384.131
  N     -302.329     643.977    -382.974
  N     -300.885     644.305    -384.730
  C     -300.734     644.942    -385.921
  C     -301.583     645.849    -386.510
  C     -302.790     646.213    -385.805
  O     -303.623     647.033    -386.175
  N     -301.140     646.216    -387.758
  C     -299.987     645.572    -387.897
  N     -299.706     644.773    -386.812
  O     -296.866     645.106    -392.684
  O     -299.122     646.076    -391.920
  H     -297.798     642.040    -385.184
  H     -299.152     646.433    -392.825
  H     -303.790     645.675    -384.112
  H     -299.339     645.644    -388.749
  H     -298.193     644.167    -385.558
  H     -299.615     642.049    -386.747
  H     -303.241     644.049    -382.539
  H     -299.039     642.783    -388.991
  H     -301.685     643.263    -382.628
  H     -296.141     643.000    -387.940
  H     -295.971     644.829    -389.629
  H     -296.283     643.233    -390.356
  P     -298.295     640.428    -390.084
  C     -296.157     639.367    -391.071
  O     -297.335     639.164    -390.309
  O     -298.458     641.316    -391.267
  O     -299.652     639.730    -389.603
  H     -300.433     640.336    -389.631
  H     -295.615     638.447    -391.141
  H     -295.547     640.105    -390.594
  H     -296.420     639.701    -392.053

 6  7  8  9  10  11  12  13  14  15  26  29  33  34 0
 6-311+G(2d,p)
 ****
 36  38  39  40  41 0
 6-311+G(2d,p)
 ****
 1  2  3  4  5  16  17  18  19  20  21  22  23  24  25 0
 3-21G
 ****
 27  28  30  31  32  35  37  42  43  44  45  46  47 0
 3-21G
 ****
 48  49 0
 3-21G
 ****


