%nproc=1
%NoSave
%Mem=1900MB
#P OB98/GEN NMR

erre ene a

0 1
  C     -200.641      33.929     585.690
  O     -201.746      33.104     586.081
  P     -201.658      32.104     587.336
  C     -201.256      29.620     587.853
  O     -201.171      30.637     586.863
  C     -200.645      28.285     587.388
  O     -201.420      27.699     586.312
  C     -199.192      28.375     586.893
  O     -198.580      27.124     587.208
  C     -199.382      28.498     585.382
  O     -198.216      28.188     584.638
  C     -200.549      27.542     585.170
  N     -201.997      25.576     580.659
  C     -201.457      25.005     581.761
  N     -201.137      25.587     582.927
  C     -201.469      26.893     582.934
  C     -202.031      27.616     581.889
  C     -202.292      26.902     580.706
  N     -202.803      27.488     579.560
  N     -202.197      28.942     582.243
  C     -201.726      29.018     583.478
  N     -201.276      27.803     583.938
  O     -202.891      32.081     588.194
  O     -200.416      32.651     588.186
  H     -198.442      28.239     583.695
  H     -200.663      32.681     589.137
  H     -201.241      23.936     581.677
  H     -201.667      29.922     584.065
  H     -200.205      26.495     585.147
  H     -199.662      29.542     585.142
  H     -198.631      29.211     587.321
  H     -200.712      27.588     588.240
  H     -202.312      29.455     588.103
  H     -202.867      26.918     578.737
  H     -202.905      28.491     579.535
  H     -200.749      29.959     588.766
  P     -197.741      26.918     588.556
  C     -195.387      27.559     589.354
  O     -196.399      27.790     588.400
  O     -197.502      25.490     588.946
  O     -198.565      27.708     589.682
  H     -198.302      27.393     590.565
  H     -195.659      28.034     590.306
  H     -194.448      27.987     588.992
  H     -195.247      26.485     589.511
  H     -200.916      34.512     584.836
  H     -199.803      33.310     585.445
  H     -200.379      34.581     586.497

 3  4  5  6  7  8  9  10  11  12  22  25  29  30  31  32 0
 6-311+G(2d,p)
 ****
 33  36  37 0
 6-311+G(2d,p)
 ****
 1  2  13  14  15  16  17  18  19  20  21  23  24  26 0
 3-21G
 ****
 27  28  34  35  38  39  40  41  42  43  44  45  46  47  48 0
 3-21G
 ****


