%nproc=1
%NoSave
%Mem=1900MB
#P OB98/GEN NMR

erre ene a

0 1
  C      538.691    -288.245    -123.870
  O      538.386    -288.809    -122.611
  H      538.746    -289.048    -124.610
  H      539.654    -287.728    -123.837
  H      537.903    -287.546    -124.163
  P      538.299    -287.797    -121.371
  C      537.846    -285.646    -122.718
  O      537.295    -286.645    -121.868
  C      536.739    -284.782    -123.315
  O      535.927    -285.603    -124.193
  C      535.810    -284.175    -122.255
  O      535.442    -282.856    -122.652
  C      534.581    -285.071    -122.304
  O      533.405    -284.408    -121.857
  C      534.558    -285.491    -123.774
  N      530.150    -287.613    -125.229
  C      530.602    -286.339    -125.272
  N      531.798    -285.861    -124.880
  C      532.584    -286.858    -124.442
  C      532.268    -288.198    -124.334
  C      530.975    -288.571    -124.751
  N      530.500    -289.861    -124.680
  N      533.328    -288.907    -123.796
  C      534.273    -288.007    -123.600
  N      533.865    -286.755    -123.958
  O      539.604    -287.317    -120.832
  O      537.394    -288.622    -120.337
  H      533.615    -283.933    -121.020
  H      536.640    -289.045    -120.785
  H      529.901    -285.609    -125.674
  H      535.252    -288.209    -123.186
  H      534.053    -284.749    -124.409
  H      534.739    -285.944    -121.657
  H      536.256    -284.153    -121.266
  H      537.188    -284.001    -123.936
  H      538.415    -286.117    -123.532
  H      529.568    -290.048    -125.012
  H      531.114    -290.600    -124.346
  H      538.533    -285.034    -122.125
  P      535.626    -281.657    -121.592
  C      537.725    -280.613    -120.505
  O      537.131    -281.113    -121.706
  O      535.153    -281.940    -120.208
  O      534.786    -280.478    -122.260
  H      534.339    -279.971    -121.561
  H      538.722    -280.283    -120.711
  H      537.751    -281.390    -119.770
  H      537.146    -279.792    -120.136

 6  7  8  9  10  11  12  13  14  15  25  28  32  33  34  35 0
 6-311+G(2d,p)
 ****
 36  39  40 0
 6-311+G(2d,p)
 ****
 1  2  3  4  5  16  17  18  19  20  21  22  23  24 0
 3-21G
 ****
 26  27  29  30  31  37  38  41  42  43  44  45  46  47 0
 3-21G
 ****
 48 0
 3-21G
 ****


