%nproc=1
%NoSave
%Mem=1900MB
#P OB98/GEN NMR

erre ene a

0 1
  C     -400.825    -791.700     172.399
  O     -401.274    -792.273     173.613
  H     -400.510    -792.506     171.727
  H     -399.969    -791.039     172.578
  H     -401.633    -791.140     171.921
  P     -401.717    -791.297     174.801
  C     -400.029    -792.128     176.581
  O     -400.416    -791.066     175.713
  C     -399.648    -791.578     177.957
  O     -399.230    -792.654     178.824
  C     -398.487    -790.591     177.930
  O     -398.921    -789.330     177.447
  C     -398.072    -790.610     179.398
  O     -398.964    -789.817     180.199
  C     -398.238    -792.119     179.737
  N     -396.986    -792.873     179.640
  C     -396.012    -792.557     180.594
  O     -396.218    -791.676     181.433
  N     -394.814    -793.239     180.552
  C     -394.621    -794.170     179.671
  N     -393.421    -794.806     179.690
  C     -395.645    -794.562     178.680
  C     -396.781    -793.870     178.711
  O     -402.944    -791.694     175.566
  O     -401.912    -789.876     174.084
  H     -398.641    -789.903     181.122
  H     -402.846    -789.745     173.826
  H     -395.449    -795.357     177.969
  H     -397.582    -794.086     178.008
  H     -398.633    -792.244     180.750
  H     -397.060    -790.217     179.550
  H     -397.661    -790.979     177.334
  H     -400.546    -791.129     178.400
  H     -392.761    -794.522     180.406
  H     -399.168    -792.623     176.121
  H     -393.232    -795.656     179.172
  H     -400.838    -792.860     176.679
  P     -398.189    -788.612     176.207
  C     -396.727    -787.331     177.895
  O     -396.742    -788.172     176.750
  O     -398.969    -787.527     175.552
  O     -397.836    -789.831     175.228
  H     -398.639    -790.122     174.729
  H     -395.715    -787.107     178.160
  H     -397.207    -787.830     178.710
  H     -397.248    -786.422     177.677

 6  7  8  9  10  11  12  13  14  15  16  26  30  31  32  33  35 0
 6-311+G(2d,p)
 ****
 37  38 0
 6-311+G(2d,p)
 ****
 1  2  3  4  5  17  18  19  20  21  22  23  24  25 0
 3-21G
 ****
 27  28  29  34  36  39  40  41  42  43  44  45  46 0
 3-21G
 ****


