%nproc=1
%NoSave
%Mem=1900MB
#P OB98/GEN NMR

erre ene a

0 1
  C     -485.773     367.033    -113.728
  O     -485.810     367.664    -115.007
  P     -486.427     366.807    -116.211
  C     -488.602     368.205    -116.465
  O     -488.029     366.944    -116.136
  C     -490.062     368.272    -115.977
  O     -490.218     367.782    -114.638
  C     -490.618     369.690    -115.968
  O     -491.004     370.072    -117.286
  C     -491.809     369.543    -115.019
  O     -492.967     369.049    -115.706
  C     -491.306     368.495    -113.998
  N     -492.070     368.665    -108.986
  C     -492.852     368.109    -109.990
  N     -493.983     367.482    -109.588
  N     -492.540     368.163    -111.252
  C     -491.387     368.810    -111.511
  C     -490.517     369.379    -110.602
  C     -490.871     369.317    -109.192
  O     -490.207     369.781    -108.273
  N     -489.407     369.905    -111.225
  C     -489.678     369.763    -112.511
  N     -490.823     369.048    -112.735
  O     -486.152     365.289    -115.766
  O     -485.819     367.116    -117.536
  H     -492.806     368.125    -115.980
  H     -485.473     364.900    -116.340
  H     -492.359     368.605    -108.038
  H     -489.053     370.131    -113.314
  H     -492.067     367.771    -113.743
  H     -492.090     370.497    -114.578
  H     -494.275     367.403    -108.634
  H     -489.895     370.386    -115.551
  H     -494.560     367.063    -110.319
  H     -490.663     367.644    -116.655
  H     -488.576     368.368    -117.545
  H     -488.013     368.997    -116.000
  P     -489.923     370.837    -118.183
  C     -489.583     368.926    -119.905
  O     -489.015     369.734    -118.882
  O     -488.957     371.511    -117.089
  O     -490.492     371.874    -119.103
  H     -488.756     372.431    -117.359
  H     -488.774     368.633    -120.599
  H     -490.354     369.458    -120.454
  H     -490.003     368.024    -119.451
  H     -485.342     367.702    -113.013
  H     -485.181     366.144    -113.786
  H     -486.768     366.780    -113.426

 3  4  5  6  7  8  9  10  11  12  23  26  30  31 0
 6-311+G(2d,p)
 ****
 33  35  36  37  38 0
 6-311+G(2d,p)
 ****
 1  2  13  14  15  16  17  18  19  20  21  22  24  25 0
 3-21G
 ****
 27  28  29  32  34  39  40  41  42  43  44  45  46  47  48  49 0
 3-21G
 ****


