%nproc=1
%NoSave
%Mem=1900MB
#P OB98/GEN NMR

erre ene a

0 1
  C     -890.388    -893.815    -918.320
  O     -891.713    -893.895    -918.790
  H     -890.353    -894.205    -917.295
  H     -890.045    -892.765    -918.309
  H     -889.721    -894.425    -918.946
  P     -891.950    -893.545    -920.350
  C     -893.405    -895.695    -920.694
  O     -893.307    -894.295    -920.761
  C     -894.631    -896.145    -919.876
  O     -894.430    -895.735    -918.508
  C     -895.950    -895.505    -920.379
  O     -896.980    -896.455    -920.196
  C     -896.150    -894.335    -919.421
  O     -897.510    -893.935    -919.334
  C     -895.560    -894.905    -918.111
  N     -895.180    -893.865    -917.176
  C     -895.550    -894.045    -915.817
  O     -896.230    -895.045    -915.499
  N     -895.250    -893.085    -914.903
  C     -894.628    -892.015    -915.307
  N     -894.374    -891.085    -914.337
  C     -894.241    -891.755    -916.709
  C     -894.523    -892.735    -917.569
  O     -890.809    -894.395    -921.055
  O     -891.918    -892.075    -920.655
  H     -897.850    -893.765    -920.267
  H     -890.741    -895.315    -920.708
  H     -893.749    -890.815    -916.985
  H     -894.260    -892.625    -918.606
  H     -896.300    -895.585    -917.608
  H     -895.570    -893.465    -919.719
  H     -895.900    -895.175    -921.424
  H     -894.692    -897.235    -919.889
  H     -894.677    -891.275    -913.403
  H     -892.508    -896.145    -920.261
  H     -893.960    -890.185    -914.536
  H     -893.496    -896.085    -921.723
  P     -897.980    -896.775    -921.407
  C     -896.810    -898.955    -922.242
  O     -898.000    -898.345    -921.715
  O     -897.830    -895.925    -922.618
  O     -899.420    -896.555    -920.740
  H     -900.000    -896.095    -921.391
  H     -896.982    -900.000    -922.393
  H     -896.005    -898.822    -921.550
  H     -896.557    -898.496    -923.175

 6  7  8  9  10  11  12  13  14  15  16  26  30  31  32  33  35 0
 6-311+G(2d,p)
 ****
 37  38 0
 6-311+G(2d,p)
 ****
 1  2  3  4  5  17  18  19  20  21  22  23  24  25 0
 3-21G
 ****
 27  28  29  34  36  39  40  41  42  43  44  45  46 0
 3-21G
 ****


