%nproc=1
%NoSave
%Mem=1900MB
#P OB98/GEN NMR

erre ene a

0 1
  C     -619.504     479.285     696.688
  O     -618.735     478.397     695.888
  H     -620.564     479.147     696.456
  H     -619.246     480.327     696.473
  H     -619.342     479.073     697.746
  P     -617.140     478.537     695.929
  C     -615.275     476.947     695.116
  O     -616.581     477.061     695.657
  C     -614.885     475.474     694.957
  O     -614.775     474.853     696.260
  C     -615.927     474.666     694.197
  O     -615.841     474.911     692.803
  C     -615.547     473.253     694.629
  O     -614.433     472.758     693.888
  C     -615.177     473.468     696.116
  N     -616.276     473.161     697.029
  C     -616.864     471.899     696.855
  O     -616.451     471.117     695.993
  N     -617.935     471.570     697.668
  C     -618.351     472.400     698.563
  N     -619.408     471.996     699.331
  C     -617.755     473.728     698.784
  C     -616.733     474.044     697.977
  O     -616.550     479.207     697.119
  O     -616.792     479.312     694.565
  H     -614.723     472.729     692.959
  H     -616.798     480.274     694.708
  H     -618.138     474.396     699.545
  H     -616.237     474.997     698.073
  H     -614.317     472.854     696.403
  H     -616.386     472.556     694.487
  H     -616.927     474.870     694.576
  H     -613.904     475.426     694.468
  H     -619.802     471.093     699.148
  H     -614.582     477.445     695.802
  H     -619.767     472.533     700.110
  H     -615.211     477.454     694.142
  P     -616.822     474.149     691.782
  C     -618.398     474.963     689.916
  O     -617.231     475.250     690.686
  O     -617.957     473.419     692.418
  O     -615.822     473.198     690.985
  H     -615.533     472.420     691.525
  H     -618.573     475.759     689.223
  H     -619.241     474.866     690.568
  H     -618.255     474.048     689.379

 6  7  8  9  10  11  12  13  14  15  16  26  30  31  32  33  35 0
 6-311+G(2d,p)
 ****
 37  38 0
 6-311+G(2d,p)
 ****
 1  2  3  4  5  17  18  19  20  21  22  23  24  25 0
 3-21G
 ****
 27  28  29  34  36  39  40  41  42  43  44  45  46 0
 3-21G
 ****


