%nproc=1
%NoSave
%Mem=1900MB
#P OB98/GEN NMR

erre ene a

0 1
  C        1.657    1153.393    -630.075
  O        0.939    1154.019    -629.025
  H        0.942    1152.977    -630.785
  H        2.278    1152.586    -629.677
  H        2.288    1154.123    -630.602
  P        1.755    1154.848    -627.919
  C        1.006    1153.307    -625.995
  O        1.010    1154.632    -626.516
  C        0.477    1153.325    -624.559
  O        1.351    1154.108    -623.713
  C       -0.903    1153.954    -624.418
  O       -1.917    1153.061    -624.852
  C       -0.935    1154.268    -622.925
  O       -1.264    1153.090    -622.160
  C        0.527    1154.695    -622.670
  N        0.688    1156.155    -622.640
  C        0.028    1156.832    -621.613
  O       -0.676    1156.257    -620.778
  N        0.197    1158.188    -621.587
  C        0.850    1158.938    -622.531
  O        0.886    1160.156    -622.507
  C        1.491    1158.173    -623.611
  C        1.389    1156.838    -623.601
  O        2.043    1156.272    -628.264
  O        3.109    1154.006    -627.740
  H       -1.390    1153.389    -621.238
  H        3.845    1154.468    -628.185
  H       -0.284    1158.694    -620.846
  H        2.033    1158.739    -624.367
  H        1.859    1156.271    -624.396
  H        0.891    1154.286    -621.723
  H       -1.671    1155.032    -622.670
  H       -0.957    1154.894    -624.975
  H        0.480    1152.294    -624.164
  H        2.030    1152.926    -625.997
  H        0.380    1152.666    -626.628
  P       -3.017    1153.555    -625.906
  C       -4.926    1151.980    -625.188
  O       -3.990    1152.327    -626.215
  O       -2.477    1154.268    -627.115
  O       -3.949    1154.544    -625.053
  H       -3.915    1155.450    -625.443
  H       -5.517    1151.149    -625.511
  H       -5.564    1152.816    -624.990
  H       -4.396    1151.716    -624.297

 6  7  8  9  10  11  12  13  14  15  16  26  31  32  33  34  35 0
 6-311+G(2d,p)
 ****
 36  37 0
 6-311+G(2d,p)
 ****
 1  2  3  4  5  17  18  19  20  21  22  23  24  25 0
 3-21G
 ****
 27  28  29  30  38  39  40  41  42  43  44  45 0
 3-21G
 ****


