%nproc=1
%NoSave
%Mem=1900MB
#P OB98/GEN NMR

erre ene a

0 1
  C     -343.083     168.733    -333.684
  O     -342.771     169.445    -332.508
  H     -344.130     168.431    -333.647
  H     -342.461     167.836    -333.751
  H     -342.929     169.359    -334.567
  P     -341.322     170.129    -332.417
  C     -340.348     169.972    -330.013
  O     -341.173     170.694    -330.919
  C     -340.573     170.466    -328.580
  O     -340.276     171.886    -328.527
  C     -342.001     170.265    -328.077
  O     -341.953     169.895    -326.697
  C     -342.632     171.641    -328.211
  O     -343.723     171.843    -327.312
  C     -341.421     172.558    -327.966
  N     -341.623     173.880    -328.559
  C     -342.185     174.853    -327.729
  O     -342.499     174.581    -326.571
  N     -342.441     176.094    -328.257
  C     -342.228     176.321    -329.517
  N     -342.529     177.562    -329.983
  C     -341.694     175.294    -330.440
  C     -341.414     174.111    -329.897
  O     -341.482     171.459    -333.293
  O     -340.182     169.277    -332.874
  H     -343.424     171.599    -326.407
  H     -340.639     171.699    -333.727
  H     -341.564     175.521    -331.483
  H     -341.022     173.296    -330.493
  H     -341.241     172.675    -326.892
  H     -343.005     171.774    -329.232
  H     -342.554     169.504    -328.638
  H     -339.848     169.961    -327.924
  H     -342.901     178.232    -329.322
  H     -339.300     170.133    -330.286
  H     -342.446     177.832    -330.955
  H     -340.576     168.903    -330.092
  P     -343.200     169.052    -326.135
  C     -342.736     169.674    -323.653
  O     -342.870     168.639    -324.617
  O     -343.105     167.675    -326.940
  O     -344.516     169.727    -326.337
  H     -343.827     167.618    -327.589
  H     -342.518     169.245    -322.697
  H     -343.649     170.228    -323.596
  H     -341.939     170.328    -323.940

 6  7  8  9  10  11  12  13  14  15  16  26  30  31  32  33  35 0
 6-311+G(2d,p)
 ****
 37  38 0
 6-311+G(2d,p)
 ****
 1  2  3  4  5  17  18  19  20  21  22  23  24  25 0
 3-21G
 ****
 27  28  29  34  36  39  40  41  42  43  44  45  46 0
 3-21G
 ****


