%nproc=1
%NoSave
%Mem=1900MB
#P OB98/GEN NMR

erre ene a

0 1
  C        6.061    -108.670    -198.106
  O        6.895    -108.025    -197.162
  H        6.334    -108.327    -199.107
  H        5.015    -108.416    -197.920
  H        6.200    -109.753    -198.052
  P        6.666    -108.414    -195.622
  C        7.002    -110.609    -194.288
  O        6.945    -109.993    -195.570
  C        6.617    -112.083    -194.386
  O        5.245    -112.222    -194.795
  C        7.434    -112.880    -195.398
  O        8.685    -113.260    -194.849
  C        6.524    -114.080    -195.612
  O        6.685    -115.012    -194.525
  C        5.119    -113.452    -195.558
  N        0.729    -112.950    -198.172
  C        0.989    -113.424    -196.933
  N        2.182    -113.568    -196.321
  C        3.181    -113.162    -197.122
  C        3.070    -112.653    -198.409
  C        1.772    -112.544    -198.934
  N        1.513    -112.048    -200.194
  N        4.312    -112.343    -198.923
  C        5.153    -112.609    -197.942
  N        4.521    -113.141    -196.846
  O        5.386    -107.947    -195.019
  O        7.993    -107.811    -194.955
  H        6.279    -114.612    -193.733
  H        8.760    -107.946    -195.538
  H        0.120    -113.728    -196.357
  H        6.219    -112.420    -197.971
  H        4.406    -114.094    -195.031
  H        6.760    -114.620    -196.532
  H        7.539    -112.337    -196.343
  H        6.704    -112.519    -193.383
  H        6.335    -110.095    -193.589
  H        0.575    -112.162    -200.555
  H        2.295    -111.863    -200.804
  H        8.029    -110.510    -193.922
  P        9.916    -113.634    -195.808
  C       11.253    -112.322    -197.570
  O        9.994    -112.481    -196.923
  O        9.893    -115.021    -196.351
  O       11.215    -113.367    -194.918
  H       11.894    -114.046    -195.093
  H       11.188    -111.531    -198.288
  H       11.517    -113.233    -198.066
  H       12.000    -112.083    -196.842

 6  7  8  9  10  11  12  13  14  15  25  28  32  33  34  35 0
 6-311+G(2d,p)
 ****
 36  39  40 0
 6-311+G(2d,p)
 ****
 1  2  3  4  5  16  17  18  19  20  21  22  23  24 0
 3-21G
 ****
 26  27  29  30  31  37  38  41  42  43  44  45  46  47 0
 3-21G
 ****
 48 0
 3-21G
 ****


