%nproc=1
%NoSave
%Mem=1900MB
#P OB98/GEN NMR

erre ene a

0 1
  C     1042.765    -339.977     281.996
  O     1042.378    -341.239     281.478
  H     1043.165    -339.375     281.172
  H     1043.546    -340.105     282.746
  H     1041.909    -339.454     282.426
  P     1041.614    -342.261     282.443
  C     1041.564    -344.106     280.636
  O     1041.988    -343.736     281.946
  C     1042.554    -345.102     280.036
  O     1043.849    -344.478     279.869
  C     1042.793    -346.330     280.899
  O     1041.713    -347.241     280.804
  C     1044.109    -346.835     280.320
  O     1043.878    -347.587     279.114
  C     1044.843    -345.515     280.013
  N     1045.827    -345.167     281.048
  C     1047.166    -345.328     280.706
  O     1047.538    -345.761     279.615
  N     1048.071    -344.991     281.677
  C     1047.774    -344.629     282.958
  O     1048.625    -344.428     283.817
  C     1046.346    -344.507     283.271
  C     1045.447    -344.775     282.316
  O     1040.155    -342.014     282.632
  O     1042.411    -342.144     283.829
  H     1043.322    -348.351     279.368
  H     1041.880    -341.626     284.465
  H     1049.045    -345.106     281.459
  H     1046.065    -344.207     284.272
  H     1044.390    -344.694     282.525
  H     1045.373    -345.590     279.053
  H     1044.636    -347.495     281.009
  H     1042.960    -346.035     281.937
  H     1042.188    -345.388     279.036
  H     1041.533    -343.204     280.013
  H     1040.565    -344.540     280.697
  P     1040.797    -347.525     282.086
  C     1039.922    -349.768     281.180
  O     1040.636    -349.115     282.223
  O     1039.523    -346.750     282.150
  O     1041.746    -347.151     283.320
  H     1041.333    -346.431     283.833
  H     1039.880    -350.818     281.380
  H     1040.421    -349.602     280.248
  H     1038.928    -349.375     281.128

 6  7  8  9  10  11  12  13  14  15  16  26  31  32  33  34  35 0
 6-311+G(2d,p)
 ****
 36  37 0
 6-311+G(2d,p)
 ****
 1  2  3  4  5  17  18  19  20  21  22  23  24  25 0
 3-21G
 ****
 27  28  29  30  38  39  40  41  42  43  44  45 0
 3-21G
 ****


