%nproc=1
%NoSave
%Mem=1900MB
#P OB98/GEN NMR

erre ene a

0 1
  C      120.114     188.502      47.706
  O      121.469     188.332      48.063
  H      119.623     189.109      48.470
  H      119.615     187.531      47.653
  H      120.036     189.015      46.743
  P      122.393     187.485      47.056
  C      122.503     189.070      44.993
  O      123.152     188.589      46.164
  C      123.292     190.234      44.386
  O      123.051     191.431      45.164
  C      124.803     189.992      44.355
  O      125.327     190.427      43.098
  C      125.339     190.849      45.489
  O      126.696     191.238      45.277
  C      124.324     191.997      45.527
  N      124.268     192.630      46.845
  C      125.466     193.140      47.352
  O      126.509     193.034      46.701
  N      125.470     193.705      48.600
  C      124.385     193.708      49.310
  N      124.460     194.265      50.550
  C      123.107     193.140      48.835
  C      123.119     192.627      47.606
  O      121.332     186.849      46.046
  O      123.291     186.485      47.704
  H      127.245     190.422      45.253
  H      121.737     186.132      45.499
  H      122.233     193.151      49.470
  H      122.227     192.185      47.174
  H      124.576     192.765      44.781
  H      125.295     190.279      46.425
  H      125.069     188.945      44.503
  H      122.900     190.430      43.380
  H      125.352     194.635      50.846
  H      121.498     189.407      45.259
  H      123.684     194.296      51.199
  H      122.429     188.257      44.264
  P      125.644     189.271      42.030
  C      123.540     189.262      40.512
  O      124.896     189.660      40.661
  O      124.814     188.017      42.578
  O      127.099     188.971      41.886
  H      125.398     187.410      43.069
  H      123.176     189.586      39.560
  H      122.951     189.704      41.289
  H      123.472     188.196      40.576

 6  7  8  9  10  11  12  13  14  15  16  26  30  31  32  33  35 0
 6-311+G(2d,p)
 ****
 37  38 0
 6-311+G(2d,p)
 ****
 1  2  3  4  5  17  18  19  20  21  22  23  24  25 0
 3-21G
 ****
 27  28  29  34  36  39  40  41  42  43  44  45  46 0
 3-21G
 ****


