%nproc=1
%NoSave
%Mem=1900MB
#P OB98/GEN NMR

erre ene a

0 1
  C      181.145    -224.851    -171.615
  O      181.876    -225.358    -170.516
  H      180.571    -223.984    -171.284
  H      180.450    -225.615    -171.977
  H      181.817    -224.544    -172.422
  P      183.036    -226.421    -170.844
  C      181.802    -228.447    -169.790
  O      182.317    -227.853    -170.970
  C      181.809    -229.965    -169.913
  O      181.000    -230.386    -171.036
  C      183.194    -230.572    -170.131
  O      183.891    -230.740    -168.903
  C      182.823    -231.913    -170.737
  O      182.370    -232.807    -169.697
  C      181.645    -231.538    -171.648
  N      183.782    -233.220    -175.930
  C      183.634    -233.848    -174.710
  N      184.132    -235.101    -174.612
  N      183.052    -233.299    -173.670
  C      182.626    -232.037    -173.909
  C      182.721    -231.306    -175.073
  C      183.351    -231.933    -176.213
  O      183.497    -231.420    -177.321
  N      182.173    -230.056    -174.934
  C      181.766    -230.026    -173.679
  N      182.021    -231.201    -173.012
  O      183.830    -226.514    -169.455
  O      183.944    -226.043    -171.967
  H      183.165    -233.137    -169.237
  H      184.654    -225.993    -169.528
  H      184.247    -233.686    -176.691
  H      181.277    -229.183    -173.206
  H      180.898    -232.337    -171.714
  H      183.666    -232.405    -171.229
  H      184.610    -235.573    -175.362
  H      183.783    -229.990    -170.855
  H      184.032    -235.580    -173.726
  H      181.347    -230.382    -169.009
  H      180.773    -228.100    -169.632
  H      182.416    -228.137    -168.936
  P      185.418    -230.253    -168.824
  C      186.241    -232.631    -169.444
  O      186.276    -231.245    -169.750
  O      185.841    -230.667    -167.336
  O      185.634    -228.795    -169.064
  H      185.976    -229.864    -166.793
  H      186.854    -233.165    -170.139
  H      185.234    -232.986    -169.511
  H      186.608    -232.786    -168.451

 6  7  8  9  10  11  12  13  14  15  26  29  33  34 0
 6-311+G(2d,p)
 ****
 36  38  39  40  41 0
 6-311+G(2d,p)
 ****
 1  2  3  4  5  16  17  18  19  20  21  22  23  24  25 0
 3-21G
 ****
 27  28  30  31  32  35  37  42  43  44  45  46  47 0
 3-21G
 ****
 48  49 0
 3-21G
 ****


