%nproc=1
%NoSave
%Mem=1900MB
#P OB98/GEN NMR

erre ene a

0 1
  C     1451.463     136.742     712.514
  O     1450.311     136.012     712.917
  P     1450.431     134.686     713.774
  C     1450.716     135.786     716.152
  O     1451.255     135.014     715.103
  C     1450.721     134.945     717.449
  O     1451.990     134.291     717.627
  C     1450.448     135.808     718.680
  O     1449.061     135.800     719.012
  C     1451.330     135.157     719.748
  O     1450.673     133.993     720.284
  C     1452.556     134.730     718.899
  N     1453.608     135.735     718.599
  C     1454.331     136.295     719.649
  O     1454.171     135.993     720.829
  N     1455.222     137.293     719.285
  C     1455.494     137.701     718.004
  O     1456.117     138.719     717.736
  C     1454.904     136.889     716.933
  C     1453.968     135.971     717.290
  O     1451.450     133.793     712.927
  O     1449.150     133.960     714.062
  H     1451.250     133.625     720.955
  H     1450.968     133.126     712.392
  H     1455.662     137.788     720.062
  H     1455.205     137.081     715.919
  H     1453.508     135.386     716.510
  H     1453.050     133.854     719.345
  H     1451.511     135.847     720.568
  H     1450.807     136.847     718.519
  H     1449.948     134.173     717.362
  H     1449.697     136.078     715.901
  H     1451.311     136.706     716.308
  P     1448.432     137.036     719.792
  C     1446.787     137.320     717.824
  O     1447.769     137.985     718.648
  O     1449.342     137.735     720.745
  O     1447.172     136.380     720.553
  H     1447.416     136.180     721.463
  H     1446.311     138.126     717.219
  H     1446.054     136.819     718.426
  H     1447.314     136.626     717.148
  H     1451.162     137.599     711.948
  H     1452.088     136.117     711.911
  H     1452.005     137.059     713.380

 3  4  5  6  7  8  9  10  11  12  13  23  28  29  30  31  32 0
 6-311+G(2d,p)
 ****
 33  34 0
 6-311+G(2d,p)
 ****
 1  2  14  15  16  17  18  19  20  21  22  24  25  26  27 0
 3-21G
 ****
 35  36  37  38  39  40  41  42  43  44  45 0
 3-21G
 ****


