%nproc=1
%NoSave
%Mem=1900MB
#P OB98/GEN NMR

erre ene a

0 1
  C     -325.149    -759.301     218.345
  O     -324.729    -760.331     217.461
  P     -323.146    -760.482     217.191
  C     -321.153    -758.811     217.270
  O     -322.557    -758.995     217.133
  C     -320.741    -757.449     216.716
  O     -321.425    -756.386     217.405
  C     -319.251    -757.144     216.875
  O     -318.464    -757.755     215.871
  C     -319.253    -755.630     216.703
  O     -319.307    -755.297     215.304
  C     -320.552    -755.228     217.412
  N     -319.274    -751.283     220.323
  C     -319.584    -751.322     218.975
  N     -319.482    -750.159     218.301
  N     -319.977    -752.411     218.341
  C     -320.006    -753.506     219.148
  C     -319.741    -753.591     220.495
  C     -319.306    -752.385     221.176
  O     -318.972    -752.299     222.350
  N     -319.908    -754.871     220.962
  C     -320.302    -755.558     219.905
  N     -320.335    -754.782     218.776
  O     -323.080    -760.968     215.667
  O     -322.440    -761.420     218.114
  H     -319.983    -755.878     214.907
  H     -322.204    -761.344     215.480
  H     -318.992    -750.431     220.750
  H     -320.534    -756.614     219.908
  H     -321.080    -754.427     216.873
  H     -318.346    -755.161     217.108
  H     -319.134    -749.307     218.712
  H     -318.902    -757.402     217.884
  H     -319.646    -750.169     217.299
  H     -321.026    -757.414     215.655
  H     -320.640    -759.603     216.724
  H     -320.889    -758.891     218.329
  P     -316.975    -758.198     216.286
  C     -315.012    -756.927     217.402
  O     -316.236    -756.844     216.713
  O     -316.308    -758.595     214.887
  O     -316.928    -759.321     217.275
  H     -315.591    -759.234     215.014
  H     -314.516    -755.952     217.379
  H     -314.345    -757.662     216.938
  H     -315.180    -757.208     218.448
  H     -326.215    -759.317     218.430
  H     -324.836    -758.352     217.962
  H     -324.712    -759.458     219.309

 3  4  5  6  7  8  9  10  11  12  23  26  30  31 0
 6-311+G(2d,p)
 ****
 33  35  36  37  38 0
 6-311+G(2d,p)
 ****
 1  2  13  14  15  16  17  18  19  20  21  22  24  25 0
 3-21G
 ****
 27  28  29  32  34  39  40  41  42  43  44  45  46  47  48  49 0
 3-21G
 ****


