%nproc=1
%NoSave
%Mem=1900MB
#P OB98/GEN NMR

erre ene a

0 1
  C     -125.283     522.200     284.890
  O     -123.897     522.540     284.770
  P     -123.284     523.326     283.511
  C     -121.096     522.150     282.776
  O     -121.685     523.181     283.562
  C     -119.568     522.205     282.861
  O     -119.116     523.579     282.867
  C     -118.969     521.606     284.125
  O     -119.017     520.193     284.131
  C     -117.555     522.186     284.087
  O     -116.687     521.397     283.259
  C     -117.785     523.567     283.436
  N     -117.605     524.669     284.368
  C     -116.589     525.580     284.071
  O     -115.845     525.392     283.108
  N     -116.434     526.679     284.884
  C     -117.156     526.797     285.955
  N     -116.969     527.914     286.708
  C     -118.142     525.786     286.378
  C     -118.315     524.759     285.548
  O     -123.754     524.738     283.389
  O     -123.706     522.464     282.229
  H     -123.751     523.044     281.446
  H     -116.892     521.629     282.332
  H     -118.692     525.900     287.300
  H     -119.034     523.975     285.771
  H     -117.107     523.703     282.586
  H     -117.099     522.232     285.080
  H     -119.501     522.002     284.997
  H     -119.160     521.706     281.972
  H     -116.291     528.588     286.386
  H     -121.397     522.298     281.729
  H     -117.492     528.112     287.550
  H     -121.472     521.180     283.109
  P     -120.195     519.508     284.977
  C     -118.543     517.573     285.489
  O     -119.855     517.951     285.117
  O     -121.446     519.538     283.975
  O     -120.515     520.200     286.264
  H     -122.260     519.743     284.475
  H     -118.586     516.607     286.002
  H     -118.087     518.308     286.163
  H     -117.924     517.471     284.599
  H     -125.445     521.682     285.812
  H     -125.568     521.571     284.073
  H     -125.872     523.093     284.875

 3  4  5  6  7  8  9  10  11  12  13  24  27  28  29  30  32 0
 6-311+G(2d,p)
 ****
 34  35 0
 6-311+G(2d,p)
 ****
 1  2  14  15  16  17  18  19  20  21  22  23  25  26 0
 3-21G
 ****
 31  33  36  37  38  39  40  41  42  43  44  45  46 0
 3-21G
 ****


