%nproc=1
%NoSave
%Mem=1900MB
#P OB98/GEN NMR

erre ene a

0 1
  C     -293.515    -245.172     464.455
  O     -293.834    -245.882     463.257
  P     -294.493    -245.103     462.027
  C     -293.219    -243.077     461.043
  O     -293.335    -244.494     461.101
  C     -291.785    -242.683     460.673
  O     -290.823    -243.240     461.603
  C     -291.355    -243.218     459.311
  O     -291.976    -242.647     458.177
  C     -289.840    -243.135     459.394
  O     -289.367    -241.828     459.084
  C     -289.595    -243.465     460.885
  N     -289.102    -244.828     461.086
  C     -287.899    -244.953     461.777
  O     -287.241    -243.988     462.166
  N     -287.453    -246.232     461.974
  C     -288.061    -247.370     461.529
  O     -287.602    -248.491     461.712
  C     -289.313    -247.176     460.787
  C     -289.771    -245.935     460.601
  O     -295.593    -244.158     462.372
  O     -295.064    -246.300     461.115
  H     -289.652    -241.622     458.170
  H     -295.937    -246.026     460.773
  H     -286.587    -246.338     462.476
  H     -289.822    -248.056     460.414
  H     -290.697    -245.771     460.059
  H     -288.849    -242.775     461.311
  H     -289.360    -243.825     458.690
  H     -291.610    -244.289     459.276
  H     -291.700    -241.599     460.720
  H     -293.492    -242.643     462.005
  H     -293.936    -242.690     460.313
  P     -293.298    -243.249     457.500
  C     -295.830    -242.695     457.467
  O     -294.539    -242.301     457.873
  O     -293.509    -244.722     457.599
  O     -293.057    -242.872     455.953
  H     -293.456    -243.575     455.401
  H     -296.543    -241.927     457.792
  H     -296.108    -243.647     457.927
  H     -295.881    -242.778     456.377
  H     -293.085    -245.847     465.166
  H     -294.406    -244.744     464.864
  H     -292.815    -244.394     464.233

 3  4  5  6  7  8  9  10  11  12  13  23  28  29  30  31  32 0
 6-311+G(2d,p)
 ****
 33  34 0
 6-311+G(2d,p)
 ****
 1  2  14  15  16  17  18  19  20  21  22  24  25  26  27 0
 3-21G
 ****
 35  36  37  38  39  40  41  42  43  44  45 0
 3-21G
 ****


