%nproc=1
%NoSave
%Mem=1900MB
#P OB98/GEN NMR

erre ene a

0 1
  C     -394.653     783.929    -368.349
  O     -395.245     785.124    -368.836
  P     -396.779     785.053    -369.303
  C     -397.916     785.071    -371.624
  O     -396.755     784.730    -370.880
  C     -397.567     786.013    -372.767
  O     -397.161     787.303    -372.206
  C     -396.420     785.523    -373.670
  O     -396.758     785.756    -375.052
  C     -395.260     786.459    -373.311
  O     -394.323     786.570    -374.379
  C     -396.028     787.749    -372.994
  N     -393.481     792.085    -373.449
  C     -394.352     791.475    -374.342
  N     -394.521     792.074    -375.539
  N     -394.991     790.363    -374.075
  C     -394.751     789.887    -372.826
  C     -393.928     790.408    -371.867
  C     -393.181     791.600    -372.181
  O     -392.325     792.146    -371.483
  N     -393.966     789.653    -370.707
  C     -394.808     788.670    -370.986
  N     -395.276     788.747    -372.271
  O     -397.233     786.597    -369.242
  O     -397.657     784.192    -368.472
  H     -393.713     787.292    -374.130
  H     -398.019     786.679    -368.661
  H     -392.989     792.934    -373.716
  H     -395.086     787.870    -370.294
  H     -396.408     788.202    -373.912
  H     -394.750     786.064    -372.426
  H     -394.078     792.948    -375.798
  H     -396.155     784.463    -373.527
  H     -395.165     791.659    -376.188
  H     -398.469     786.202    -373.361
  H     -398.644     785.561    -370.954
  H     -398.375     784.155    -372.020
  P     -395.965     784.874    -376.115
  C     -393.653     785.298    -377.251
  O     -394.441     785.377    -376.085
  O     -396.510     785.421    -377.528
  O     -396.176     783.392    -375.971
  H     -396.423     784.738    -378.225
  H     -394.245     785.048    -378.134
  H     -392.885     784.541    -377.105
  H     -393.167     786.263    -377.423
  H     -393.636     784.120    -368.076
  H     -394.682     783.180    -369.112
  H     -395.194     783.586    -367.492

 3  4  5  6  7  8  9  10  11  12  23  26  30  31  33  0
 6-311+G(2d,p)
 ****
 35  36  37  38 0
 6-311+G(2d,p)
 ****
 1  2  13  14  15  16  17  18  19  20  21  22  24  25  27  28  29 0
 3-21G
 ****
 32  34  39  40  41  42  43  44  45  46  47  48  49 0
 3-21G
 ****


