%nproc=1
%NoSave
%Mem=1900MB
#P OB98/GEN NMR

erre ene a

0 1
  C      137.994     189.392     133.067
  O      138.017     188.103     133.690
  P      138.459     187.996     135.230
  C      140.938     187.472     134.744
  O      140.014     188.371     135.349
  C      142.392     187.819     135.152
  O      142.582     187.611     136.584
  C      143.421     186.952     134.421
  O      144.635     187.707     134.193
  C      143.737     185.876     135.439
  O      144.997     185.248     135.172
  C      143.678     186.683     136.741
  N      146.000     184.017     140.455
  C      146.486     184.808     139.471
  N      145.806     185.513     138.542
  C      144.487     185.328     138.692
  C      143.835     184.546     139.635
  C      144.657     183.870     140.551
  N      144.149     183.025     141.522
  N      142.469     184.618     139.467
  C      142.294     185.367     138.416
  N      143.475     185.849     137.907
  O      138.064     186.742     135.934
  O      137.744     189.272     135.893
  H      145.109     184.531     135.843
  H      137.368     189.012     136.767
  H      147.568     184.892     139.446
  H      141.334     185.587     137.942
  H      144.587     187.271     136.896
  H      142.953     185.097     135.403
  H      143.077     186.537     133.461
  H      142.559     188.883     134.964
  H      140.836     187.512     133.661
  H      144.816     182.489     142.059
  H      143.164     182.808     141.524
  H      140.682     186.450     135.028
  P      144.860     188.200     132.678
  C      145.687     185.764     132.162
  O      144.910     186.882     131.774
  O      146.022     189.134     132.528
  O      143.452     188.887     132.332
  H      142.676     188.322     132.532
  H      145.458     184.930     131.475
  H      145.423     185.466     133.180
  H      146.745     186.013     132.102
  H      137.680     189.291     132.049
  H      138.974     189.820     133.097
  H      137.310     190.028     133.589

 3  4  5  6  7  8  9  10  11  12  22  25  29  30  31  32 0
 6-311+G(2d,p)
 ****
 33  36  37 0
 6-311+G(2d,p)
 ****
 1  2  13  14  15  16  17  18  19  20  21  23  24  26 0
 3-21G
 ****
 27  28  34  35  38  39  40  41  42  43  44  45  46  47  48 0
 3-21G
 ****


