%nproc=1
%NoSave
%Mem=1900MB
#P OB98/GEN NMR

erre ene a

0 1
  C       39.316    -534.507    -274.071
  O       40.518    -534.316    -274.824
  P       41.869    -535.098    -274.424
  C       42.647    -535.967    -276.710
  O       42.893    -535.035    -275.662
  C       43.491    -535.725    -277.959
  O       43.006    -534.572    -278.701
  C       44.983    -535.493    -277.701
  O       45.667    -536.050    -278.827
  C       45.085    -533.978    -277.701
  O       46.408    -533.510    -277.903
  C       44.082    -533.620    -278.810
  N       43.608    -532.241    -278.706
  C       44.143    -531.318    -279.601
  O       45.024    -531.659    -280.394
  N       43.715    -530.008    -279.545
  C       42.889    -529.645    -278.611
  N       42.514    -528.340    -278.586
  C       42.359    -530.572    -277.588
  C       42.751    -531.845    -277.705
  O       41.652    -536.467    -273.872
  O       42.554    -534.146    -273.329
  H       46.370    -532.559    -278.143
  H       43.069    -534.698    -272.708
  H       41.698    -530.221    -276.807
  H       42.415    -532.606    -277.006
  H       44.538    -533.752    -279.801
  H       44.732    -533.582    -276.736
  H       45.334    -535.940    -276.766
  H       43.358    -536.591    -278.620
  H       42.925    -527.728    -279.291
  H       41.582    -535.918    -276.972
  H       41.976    -527.934    -277.844
  H       42.833    -536.981    -276.329
  P       46.960    -536.975    -278.659
  C       45.897    -538.654    -280.279
  O       47.055    -537.891    -279.976
  O       47.034    -537.729    -277.378
  O       48.208    -535.978    -278.813
  H       49.010    -536.408    -278.456
  H       45.988    -539.064    -281.286
  H       44.994    -538.034    -280.226
  H       45.809    -539.482    -279.566
  H       38.535    -533.906    -274.488
  H       39.483    -534.220    -273.054
  H       39.032    -535.538    -274.108

 3  4  5  6  7  8  9  10  11  12  13  23  27  28  29  30  32 0
 6-311+G(2d,p)
 ****
 34  35 0
 6-311+G(2d,p)
 ****
 1  2  14  15  16  17  18  19  20  21  22  24  25  26 0
 3-21G
 ****
 31  33  36  37  38  39  40  41  42  43  44  45  46 0
 3-21G
 ****


