%nproc=1
%NoSave
%Mem=1900MB
#P OB98/GEN NMR

erre ene a

0 1
  C      209.518     -21.551    -580.009
  O      210.076     -22.844    -579.885
  H      209.281     -21.341    -581.055
  H      208.596     -21.508    -579.423
  H      210.215     -20.799    -579.629
  P      211.449     -23.118    -580.666
  C      210.327     -24.903    -582.188
  O      211.023     -23.666    -582.114
  C      209.176     -24.788    -583.177
  O      208.295     -23.707    -582.794
  C      209.606     -24.472    -584.609
  O      210.040     -25.628    -585.302
  C      208.307     -23.936    -585.185
  O      207.416     -25.035    -585.472
  C      207.766     -23.110    -584.010
  N      206.312     -18.397    -585.385
  C      205.698     -19.600    -585.488
  N      206.155     -20.809    -585.097
  C      207.381     -20.700    -584.562
  C      208.130     -19.554    -584.397
  C      207.543     -18.350    -584.833
  N      208.171     -17.126    -584.743
  N      209.359     -19.839    -583.833
  C      209.330     -21.143    -583.629
  N      208.159     -21.711    -584.063
  O      212.043     -24.419    -579.943
  O      212.422     -21.983    -580.687
  H      207.844     -25.566    -586.166
  H      213.000     -24.486    -580.108
  H      204.714     -19.585    -585.943
  H      210.128     -21.718    -583.178
  H      206.673     -23.137    -583.941
  H      208.444     -23.384    -586.111
  H      210.367     -23.678    -584.636
  H      208.596     -25.722    -583.141
  H      209.930     -25.150    -581.196
  H      207.746     -16.365    -585.248
  H      209.147     -17.102    -584.475
  H      211.023     -25.691    -582.502
  P      211.608     -25.749    -585.641
  C      211.065     -25.643    -588.186
  O      211.791     -25.092    -587.087
  O      211.801     -27.314    -585.913
  O      212.511     -25.238    -584.570
  H      212.722     -27.585    -585.724
  H      211.295     -25.096    -589.076
  H      210.015     -25.578    -587.989
  H      211.340     -26.669    -588.317

 6  7  8  9  10  11  12  13  14  15  25  28  32  33  34  35 0
 6-311+G(2d,p)
 ****
 36  39  40 0
 6-311+G(2d,p)
 ****
 1  2  3  4  5  16  17  18  19  20  21  22  23  24 0
 3-21G
 ****
 26  27  29  30  31  37  38  41  42  43  44  45  46  47 0
 3-21G
 ****
 48 0
 3-21G
 ****


