%nproc=1
%NoSave
%Mem=1900MB
#P OB98/GEN NMR

erre ene a

0 1
  C     -166.084    -208.737    -323.662
  O     -167.130    -208.678    -324.613
  H     -166.489    -209.102    -322.715
  H     -165.662    -207.740    -323.505
  H     -165.303    -209.421    -324.002
  P     -166.743    -208.104    -326.060
  C     -167.218    -210.398    -327.172
  O     -166.272    -209.364    -326.935
  C     -166.636    -211.448    -328.115
  O     -167.557    -212.545    -328.286
  C     -166.310    -210.927    -329.509
  O     -165.037    -210.302    -329.533
  C     -166.348    -212.215    -330.321
  O     -165.120    -212.959    -330.169
  C     -167.522    -212.965    -329.677
  N     -170.962    -214.858    -332.851
  C     -169.714    -215.333    -332.505
  N     -169.303    -216.469    -333.115
  N     -168.924    -214.743    -331.644
  C     -169.435    -213.588    -331.159
  C     -170.656    -213.011    -331.424
  C     -171.541    -213.704    -332.337
  O     -172.690    -213.379    -332.622
  N     -170.821    -211.846    -330.720
  C     -169.689    -211.703    -330.056
  N     -168.814    -212.734    -330.293
  O     -165.379    -207.309    -325.795
  O     -167.765    -207.223    -326.693
  H     -164.853    -212.948    -329.234
  H     -165.373    -206.503    -326.344
  H     -171.536    -215.369    -333.497
  H     -169.459    -210.885    -329.389
  H     -167.365    -214.052    -329.683
  H     -166.456    -212.014    -331.388
  H     -169.723    -216.796    -333.974
  H     -167.092    -210.247    -329.870
  H     -168.360    -216.774    -332.913
  H     -165.737    -211.857    -327.637
  H     -168.115    -209.959    -327.622
  H     -167.487    -210.864    -326.220
  P     -164.745    -209.221    -330.677
  C     -165.605    -207.171    -329.331
  O     -165.768    -207.997    -330.475
  O     -165.283    -209.945    -331.999
  O     -163.310    -208.838    -330.824
  H     -164.530    -210.256    -332.536
  H     -166.353    -206.406    -329.334
  H     -164.635    -206.721    -329.352
  H     -165.704    -207.764    -328.446

 6  7  8  9  10  11  12  13  14  15  26  29  33  34 0
 6-311+G(2d,p)
 ****
 36  38  39  40  41 0
 6-311+G(2d,p)
 ****
 1  2  3  4  5  16  17  18  19  20  21  22  23  24  25 0
 3-21G
 ****
 27  28  30  31  32  35  37  42  43  44  45  46  47 0
 3-21G
 ****
 48  49 0
 3-21G
 ****


