%nproc=1
%NoSave
%Mem=1900MB
#P OB98/GEN NMR

erre ene a

0 1
  C     -418.678       2.103      40.444
  O     -417.306       1.955      40.747
  P     -416.714       0.702      41.544
  C     -416.101       1.823      43.806
  O     -416.972       0.937      43.112
  C     -416.474       1.994      45.287
  O     -417.740       2.677      45.391
  C     -416.663       0.620      45.945
  O     -415.549      -0.100      46.424
  C     -417.787       0.822      46.959
  O     -417.292       1.020      48.286
  C     -418.498       2.083      46.455
  N     -423.382       1.682      47.754
  C     -422.337       2.222      48.471
  N     -422.593       2.517      49.767
  N     -421.143       2.431      47.974
  C     -421.016       1.995      46.695
  C     -421.982       1.454      45.877
  C     -423.302       1.274      46.431
  O     -424.237       0.721      45.856
  N     -421.472       1.064      44.668
  C     -420.182       1.326      44.761
  N     -419.851       1.856      45.993
  O     -415.377       0.197      41.105
  O     -417.797      -0.439      41.189
  H     -416.691       1.791      48.270
  H     -417.322      -1.290      41.129
  H     -424.256       1.475      48.218
  H     -419.447       1.125      43.993
  H     -418.555       2.835      47.256
  H     -418.434      -0.062      46.999
  H     -423.451       2.241      50.220
  H     -417.097      -0.036      45.177
  H     -421.808       2.756      50.363
  H     -415.748       2.629      45.804
  H     -416.134       2.788      43.289
  H     -415.074       1.455      43.737
  P     -415.410      -1.695      46.497
  C     -416.038      -1.938      48.966
  O     -416.403      -2.240      47.630
  O     -413.963      -1.932      47.147
  O     -415.509      -2.397      45.182
  H     -413.643      -2.825      46.915
  H     -416.590      -2.594      49.639
  H     -416.294      -0.895      49.191
  H     -414.968      -2.085      49.124
  H     -418.828       3.017      39.908
  H     -419.243       2.125      41.352
  H     -419.001       1.279      39.842

 3  4  5  6  7  8  9  10  11  12  23  26  30  31 0
 6-311+G(2d,p)
 ****
 33  35  36  37  38 0
 6-311+G(2d,p)
 ****
 1  2  13  14  15  16  17  18  19  20  21  22  24  25 0
 3-21G
 ****
 27  28  29  32  34  39  40  41  42  43  44  45  46  47  48  49 0
 3-21G
 ****


