%nproc=1
%NoSave
%Mem=1900MB
#P OB98/GEN NMR

erre ene a

0 1
  C       64.651      20.162    -109.822
  O       65.679      19.225    -110.078
  H       64.799      21.035    -110.467
  H       64.694      20.487    -108.777
  H       63.669      19.726    -110.034
  P       65.511      17.782    -109.403
  C       66.755      18.762    -107.308
  O       65.682      17.975    -107.813
  C       67.146      18.289    -105.910
  O       66.037      18.415    -105.000
  C       67.513      16.815    -105.831
  O       68.770      16.531    -106.412
  C       67.474      16.596    -104.322
  O       68.709      16.971    -103.703
  C       66.328      17.537    -103.882
  N       65.162      16.798    -103.437
  C       65.356      15.988    -102.311
  O       66.458      15.953    -101.752
  N       64.316      15.215    -101.866
  C       63.183      15.225    -102.504
  N       62.207      14.410    -102.036
  C       62.936      16.064    -103.699
  C       63.959      16.821    -104.105
  O       66.865      17.042    -109.829
  O       64.270      17.051    -109.789
  H       69.378      16.320    -104.002
  H       67.668      17.567    -109.661
  H       61.973      16.044    -104.187
  H       63.862      17.464    -104.972
  H       66.660      18.187    -103.057
  H       67.300      15.541    -104.075
  H       66.717      16.203    -106.286
  H       67.966      18.924    -105.547
  H       62.436      13.810    -101.251
  H       66.479      19.824    -107.286
  H       61.315      14.275    -102.496
  H       67.600      18.655    -107.996
  P       69.110      15.076    -106.993
  C       69.931      14.130    -104.739
  O       68.950      14.046    -105.764
  O       70.403      14.967    -107.719
  O       67.823      14.731    -107.884
  H       66.979      14.713    -107.399
  H       69.721      13.402    -103.983
  H       69.912      15.109    -104.307
  H       70.899      13.943    -105.155

 6  7  8  9  10  11  12  13  14  15  16  26  30  31  32  33  35 0
 6-311+G(2d,p)
 ****
 37  38 0
 6-311+G(2d,p)
 ****
 1  2  3  4  5  17  18  19  20  21  22  23  24  25 0
 3-21G
 ****
 27  28  29  34  36  39  40  41  42  43  44  45  46 0
 3-21G
 ****


