%nproc=1
%NoSave
%Mem=1900MB
#P OB98/GEN NMR

erre ene a

0 1
  C       32.094     127.422    1123.486
  O       31.913     128.527    1122.621
  H       32.350     127.791    1124.488
  H       32.932     126.792    1123.132
  H       31.182     126.828    1123.551
  P       31.544     128.237    1121.091
  C       32.489     126.560    1119.351
  O       32.764     127.372    1120.501
  C       33.676     126.594    1118.402
  O       34.909     126.341    1119.111
  C       33.599     125.562    1117.274
  O       32.765     126.024    1116.235
  C       35.078     125.472    1116.885
  O       35.426     126.624    1116.088
  C       35.764     125.546    1118.258
  N       38.840     121.515    1118.576
  C       38.908     122.626    1117.748
  N       39.934     122.645    1116.858
  N       38.076     123.610    1117.785
  C       37.055     123.427    1118.683
  C       36.864     122.357    1119.536
  C       37.860     121.291    1119.520
  O       37.839     120.308    1120.250
  N       35.697     122.497    1120.251
  C       35.209     123.658    1119.849
  N       35.983     124.246    1118.885
  O       31.192     129.430    1120.256
  O       30.348     127.178    1121.171
  H       34.989     126.531    1115.227
  H       29.478     127.630    1121.159
  H       39.513     120.774    1118.484
  H       34.305     124.102    1120.229
  H       36.741     126.054    1118.200
  H       35.315     124.592    1116.291
  H       40.425     121.811    1116.604
  H       33.286     124.578    1117.659
  H       39.977     123.435    1116.216
  H       33.745     127.612    1117.978
  H       31.584     126.980    1118.870
  H       32.281     125.534    1119.653
  P       31.468     125.187    1115.790
  C       31.105     122.948    1114.510
  O       32.045     123.860    1115.055
  O       30.464     125.941    1114.990
  O       30.877     124.574    1117.155
  H       30.230     125.190    1117.612
  H       31.624     122.127    1114.060
  H       30.514     123.445    1113.770
  H       30.468     122.584    1115.289

 6  7  8  9  10  11  12  13  14  15  26  29  33  34 0
 6-311+G(2d,p)
 ****
 36  38  39  40  41 0
 6-311+G(2d,p)
 ****
 1  2  3  4  5  16  17  18  19  20  21  22  23  24  25 0
 3-21G
 ****
 27  28  30  31  32  35  37  42  43  44  45  46  47 0
 3-21G
 ****
 48  49 0
 3-21G
 ****


