%nproc=1
%NoSave
%Mem=1900MB
#P OB98/GEN NMR

erre ene a

0 1
  C     -477.251    -861.613     188.536
  O     -476.238    -861.537     189.522
  H     -477.516    -862.662     188.378
  H     -476.885    -861.199     187.595
  H     -478.147    -861.067     188.861
  P     -475.854    -860.075     190.048
  C     -473.320    -859.994     189.465
  O     -474.634    -859.562     189.138
  C     -472.398    -859.869     188.260
  O     -472.866    -860.738     187.193
  C     -472.329    -858.467     187.664
  O     -471.421    -857.633     188.375
  C     -471.835    -858.778     186.267
  O     -470.414    -859.048     186.303
  C     -472.615    -860.058     185.925
  N     -474.971    -859.875     181.446
  C     -473.647    -860.148     181.736
  N     -472.826    -860.384     180.700
  N     -473.161    -860.169     182.953
  C     -474.090    -859.891     183.900
  C     -475.433    -859.620     183.730
  C     -475.961    -859.611     182.390
  O     -477.127    -859.398     182.076
  N     -476.053    -859.408     184.939
  C     -475.085    -859.529     185.832
  N     -473.875    -859.815     185.253
  O     -475.151    -860.363     191.463
  O     -476.997    -859.122     190.195
  H     -469.984    -858.217     186.547
  H     -475.381    -859.646     192.085
  H     -475.296    -859.857     180.488
  H     -475.220    -859.427     186.896
  H     -472.034    -860.742     185.291
  H     -471.973    -857.946     185.565
  H     -473.134    -860.328     179.738
  H     -473.329    -858.012     187.604
  H     -471.867    -860.599     180.880
  H     -471.403    -860.207     188.548
  H     -473.352    -861.042     189.789
  H     -472.950    -859.383     190.299
  P     -471.545    -856.043     188.162
  C     -469.107    -855.568     187.391
  O     -470.482    -855.680     187.020
  O     -470.871    -855.449     189.494
  O     -472.938    -855.538     187.956
  H     -471.206    -854.562     189.659
  H     -468.524    -855.323     186.528
  H     -468.770    -856.499     187.797
  H     -468.997    -854.798     188.126

 6  7  8  9  10  11  12  13  14  15  26  29  33  34 0
 6-311+G(2d,p)
 ****
 36  38  39  40  41 0
 6-311+G(2d,p)
 ****
 1  2  3  4  5  16  17  18  19  20  21  22  23  24  25 0
 3-21G
 ****
 27  28  30  31  32  35  37  42  43  44  45  46  47 0
 3-21G
 ****
 48  49 0
 3-21G
 ****


