%nproc=1
%NoSave
%Mem=1900MB
#P OB98/GEN NMR

erre ene a

0 1
  C      208.440    -276.313    -407.081
  O      209.004    -275.017    -406.838
  P      208.634    -273.874    -407.912
  C      210.689    -274.273    -409.439
  O      209.278    -274.310    -409.319
  C      211.137    -274.610    -410.875
  O      210.611    -273.630    -411.813
  C      212.660    -274.654    -411.050
  O      212.942    -275.686    -412.015
  C      212.951    -273.284    -411.646
  O      214.231    -273.176    -412.234
  C      211.754    -273.136    -412.571
  N      213.874    -269.153    -414.951
  C      214.360    -270.367    -414.628
  N      213.734    -271.383    -413.981
  C      212.464    -271.028    -413.680
  C      211.836    -269.826    -413.944
  C      212.586    -268.848    -414.611
  N      212.111    -267.600    -414.936
  N      210.529    -269.836    -413.456
  C      210.427    -271.002    -412.837
  N      211.528    -271.783    -413.022
  O      209.511    -272.628    -407.450
  O      207.177    -273.566    -407.958
  H      214.325    -272.316    -412.680
  H      208.978    -272.000    -406.944
  H      215.384    -270.556    -414.919
  H      209.574    -271.333    -412.264
  H      211.847    -273.773    -413.471
  H      212.908    -272.522    -410.838
  H      213.212    -274.863    -410.124
  H      210.705    -275.585    -411.136
  H      211.142    -274.988    -408.740
  H      212.745    -266.960    -415.401
  H      211.187    -267.329    -414.684
  H      211.050    -273.279    -409.141
  P      213.062    -277.203    -411.502
  C      215.566    -277.499    -411.055
  O      214.302    -277.196    -410.486
  O      213.717    -277.891    -412.794
  O      211.797    -277.840    -411.046
  H      214.489    -277.390    -413.110
  H      216.324    -277.374    -410.262
  H      215.791    -276.808    -411.872
  H      215.584    -278.533    -411.399
  H      208.751    -276.987    -406.310
  H      208.776    -276.676    -408.030
  H      207.372    -276.242    -407.084

 3  4  5  6  7  8  9  10  11  12  22  25  29  30  31  32 0
 6-311+G(2d,p)
 ****
 33  36  37 0
 6-311+G(2d,p)
 ****
 1  2  13  14  15  16  17  18  19  20  21  23  24  26 0
 3-21G
 ****
 27  28  34  35  38  39  40  41  42  43  44  45  46  47  48 0
 3-21G
 ****


