%nproc=1
%NoSave
%Mem=1900MB
#P OB98/GEN NMR

erre ene a

0 1
  C     -582.747     -84.906     917.032
  O     -581.640     -85.737     917.309
  H     -583.596     -85.531     916.750
  H     -582.517     -84.224     916.212
  H     -583.016     -84.331     917.926
  P     -580.251     -84.996     917.641
  C     -580.018     -86.149     919.969
  O     -580.231     -84.945     919.248
  C     -578.582     -86.199     920.487
  O     -578.319     -85.073     921.354
  C     -578.249     -87.441     921.320
  O     -578.028     -88.597     920.543
  C     -576.978     -86.962     921.998
  O     -575.893     -86.984     921.055
  C     -577.371     -85.520     922.373
  N     -577.967     -85.404     923.706
  C     -577.117     -84.984     924.738
  O     -575.928     -84.730     924.507
  N     -577.621     -84.898     926.013
  C     -578.858     -85.181     926.246
  N     -579.300     -85.075     927.532
  C     -579.792     -85.616     925.192
  C     -579.291     -85.706     923.961
  O     -580.542     -83.474     917.243
  O     -579.027     -85.579     917.015
  H     -575.867     -87.874     920.676
  H     -579.793     -82.898     917.545
  H     -580.824     -85.855     925.423
  H     -579.914     -86.009     923.135
  H     -576.500     -84.843     922.322
  H     -576.685     -87.589     922.846
  H     -579.016     -87.623     922.089
  H     -577.908     -86.117     919.625
  H     -578.623     -84.837     928.239
  H     -580.207     -86.994     919.294
  H     -580.204     -85.420     927.825
  H     -580.711     -86.214     920.816
  P     -578.876     -89.911     920.916
  C     -580.709     -89.769     919.069
  O     -580.389     -89.645     920.449
  O     -578.965     -89.839     922.511
  O     -578.273     -91.198     920.447
  H     -578.952     -90.735     922.903
  H     -581.749     -89.561     918.924
  H     -580.495     -90.765     918.741
  H     -580.124     -89.074     918.503

 6  7  8  9  10  11  12  13  14  15  16  26  30  31  32  33  35 0
 6-311+G(2d,p)
 ****
 37  38 0
 6-311+G(2d,p)
 ****
 1  2  3  4  5  17  18  19  20  21  22  23  24  25 0
 3-21G
 ****
 27  28  29  34  36  39  40  41  42  43  44  45  46 0
 3-21G
 ****


