%nproc=1
%NoSave
%Mem=1900MB
#P OB98/GEN NMR

erre ene a

0 1
  C      740.686     268.627     230.368
  O      741.063     267.470     229.644
  H      741.176     268.599     231.353
  H      739.602     268.638     230.518
  H      741.002     269.533     229.840
  P      740.600     267.397     228.117
  C      740.071     264.826     228.301
  O      739.614     266.135     227.978
  C      738.999     264.062     229.056
  O      738.848     264.564     230.402
  C      737.595     264.214     228.468
  O      737.444     263.508     227.252
  C      736.756     263.650     229.610
  O      736.774     262.207     229.612
  C      737.507     264.213     230.843
  N      736.816     265.357     231.441
  C      736.610     265.275     232.830
  O      737.014     264.294     233.466
  N      735.939     266.299     233.448
  C      735.526     267.318     232.756
  N      734.855     268.293     233.428
  C      735.743     267.455     231.300
  C      736.377     266.434     230.714
  O      741.925     266.889     227.372
  O      740.024     268.659     227.562
  H      736.416     261.934     228.754
  H      742.296     266.075     227.751
  H      735.384     268.315     230.775
  H      736.588     266.454     229.646
  H      737.613     263.434     231.610
  H      735.708     263.953     229.535
  H      737.341     265.270     228.347
  H      739.295     263.009     229.120
  H      734.706     268.156     234.426
  H      740.999     264.872     228.874
  H      734.454     269.102     232.999
  H      740.298     264.320     227.357
  P      737.302     264.310     225.859
  C      735.404     262.659     225.291
  O      735.811     264.033     225.340
  O      738.377     264.043     224.865
  O      737.216     265.841     226.324
  H      736.466     266.045     226.920
  H      734.398     262.598     224.932
  H      735.459     262.236     226.272
  H      736.051     262.119     224.632

 6  7  8  9  10  11  12  13  14  15  16  26  30  31  32  33  35 0
 6-311+G(2d,p)
 ****
 37  38 0
 6-311+G(2d,p)
 ****
 1  2  3  4  5  17  18  19  20  21  22  23  24  25 0
 3-21G
 ****
 27  28  29  34  36  39  40  41  42  43  44  45  46 0
 3-21G
 ****


