%nproc=1
%NoSave
%Mem=1900MB
#P OB98/GEN NMR

erre ene a

0 1
  C      106.086    -234.817     129.779
  O      107.173    -235.599     130.233
  H      105.386    -235.462     129.245
  H      106.445    -234.046     129.094
  H      105.567    -234.355     130.624
  P      108.206    -234.909     131.242
  C      107.646    -235.875     133.592
  O      107.464    -234.816     132.664
  C      108.561    -235.423     134.731
  O      107.892    -234.359     135.471
  C      108.905    -236.534     135.733
  O      110.255    -236.341     136.178
  C      107.958    -236.261     136.888
  O      108.396    -236.796     138.129
  C      107.910    -234.733     136.864
  N      106.746    -234.197     137.566
  C      106.692    -234.371     138.947
  O      107.588    -234.864     139.622
  N      105.535    -233.947     139.549
  C      104.451    -233.402     138.927
  O      103.434    -233.063     139.522
  C      104.567    -233.253     137.465
  C      105.684    -233.654     136.862
  O      108.243    -233.392     130.740
  O      109.564    -235.528     131.295
  H      108.934    -233.272     130.065
  H      109.270    -236.403     138.326
  H      105.483    -234.065     140.545
  H      103.718    -232.835     136.938
  H      105.792    -233.578     135.788
  H      108.825    -234.317     137.300
  H      106.974    -236.687     136.667
  H      108.789    -237.552     135.334
  H      109.470    -234.988     134.300
  H      108.107    -236.725     133.082
  H      106.669    -236.183     133.983
  P      111.352    -237.407     135.695
  C      111.585    -236.207     133.379
  O      111.288    -237.395     134.093
  O      110.647    -238.782     136.114
  O      112.695    -237.175     136.298
  H      109.683    -238.760     136.011
  H      111.491    -236.389     132.329
  H      112.586    -235.899     133.599
  H      110.903    -235.436     133.670

 6  7  8  9  10  11  12  13  14  15  16  27  31  32  33  34  35 0
 6-311+G(2d,p)
 ****
 36  37 0
 6-311+G(2d,p)
 ****
 1  2  3  4  5  17  18  19  20  21  22  23  24  25 0
 3-21G
 ****
 26  28  29  30  38  39  40  41  42  43  44  45 0
 3-21G
 ****


