%nproc=1
%NoSave
%Mem=1900MB
#P OB98/GEN NMR

erre ene a

0 1
  C      -39.286    -481.935     124.915
  O      -39.529    -481.861     126.324
  P      -40.997    -482.038     126.950
  C      -39.930    -483.220     128.976
  O      -40.861    -482.233     128.537
  C      -39.207    -482.788     130.253
  O      -38.372    -481.638     130.008
  C      -40.132    -482.396     131.401
  O      -40.646    -483.545     132.044
  C      -39.198    -481.541     132.258
  O      -38.359    -482.375     133.074
  C      -38.363    -480.821     131.193
  N      -38.479    -475.957     132.768
  C      -37.875    -477.056     133.272
  N      -37.893    -478.316     132.794
  C      -38.616    -478.386     131.662
  C      -39.292    -477.353     131.033
  C      -39.209    -476.086     131.635
  N      -39.840    -474.972     131.130
  N      -39.944    -477.808     129.909
  C      -39.650    -479.095     129.849
  N      -38.850    -479.490     130.886
  O      -41.828    -483.079     126.274
  O      -41.675    -480.596     126.811
  H      -37.839    -482.944     132.474
  H      -42.643    -480.692     126.740
  H      -37.298    -476.898     134.179
  H      -39.987    -479.772     129.075
  H      -37.315    -480.725     131.499
  H      -39.739    -480.865     132.926
  H      -40.951    -481.772     131.030
  H      -38.545    -483.609     130.560
  H      -39.197    -483.384     128.178
  H      -39.756    -474.105     131.639
  H      -40.424    -475.067     130.310
  H      -40.471    -484.156     129.154
  P      -42.217    -483.688     132.309
  C      -41.527    -486.129     132.678
  O      -42.454    -485.115     132.997
  O      -43.096    -483.396     131.134
  O      -42.497    -482.664     133.508
  H      -43.407    -482.326     133.439
  H      -41.779    -486.560     131.704
  H      -41.589    -486.915     133.438
  H      -40.510    -485.735     132.653
  H      -38.243    -481.789     124.725
  H      -39.849    -481.175     124.415
  H      -39.584    -482.896     124.552

 3  4  5  6  7  8  9  10  11  12  22  25  29  30  31  32 0
 6-311+G(2d,p)
 ****
 33  36  37 0
 6-311+G(2d,p)
 ****
 1  2  13  14  15  16  17  18  19  20  21  23  24  26 0
 3-21G
 ****
 27  28  34  35  38  39  40  41  42  43  44  45  46  47  48 0
 3-21G
 ****


