%nproc=1
%NoSave
%Mem=1900MB
#P OB98/GEN NMR

erre ene a

0 1
  C     -188.129    -162.634     128.065
  O     -187.350    -163.800     127.883
  H     -187.561    -161.924     128.671
  H     -189.059    -162.879     128.585
  H     -188.354    -162.174     127.099
  P     -188.000    -164.967     126.995
  C     -185.826    -166.358     126.683
  O     -187.122    -166.282     127.263
  C     -184.983    -167.380     127.440
  O     -184.526    -166.806     128.687
  C     -185.744    -168.639     127.829
  O     -185.888    -169.541     126.747
  C     -184.870    -169.175     128.952
  O     -183.765    -169.930     128.441
  C     -184.372    -167.893     129.629
  N     -184.126    -167.975     134.727
  C     -183.206    -168.245     133.775
  N     -183.348    -168.187     132.433
  C     -184.584    -167.775     132.106
  C     -185.624    -167.461     132.965
  C     -185.357    -167.572     134.340
  N     -186.300    -167.323     135.309
  N     -186.756    -167.118     132.252
  C     -186.404    -167.214     130.987
  N     -185.101    -167.604     130.850
  O     -187.609    -164.545     125.502
  O     -189.473    -165.140     127.157
  H     -183.250    -170.222     129.218
  H     -188.373    -164.112     125.076
  H     -182.232    -168.558     134.138
  H     -187.053    -167.021     130.141
  H     -183.309    -167.949     129.891
  H     -185.442    -169.827     129.612
  H     -186.726    -168.375     128.243
  H     -184.102    -167.626     126.834
  H     -185.344    -165.377     126.743
  H     -185.924    -166.643     125.630
  H     -186.060    -167.488     136.273
  H     -187.254    -167.132     135.028
  P     -187.354    -170.110     126.440
  C     -187.166    -169.932     123.845
  O     -187.312    -170.772     124.982
  O     -188.242    -168.795     126.235
  O     -187.911    -170.994     127.505
  H     -189.141    -168.942     126.586
  H     -187.157    -170.531     122.958
  H     -186.247    -169.389     123.918
  H     -187.984    -169.244     123.802

 6  7  8  9  10  11  12  13  14  15  25  28  32  33  34  35 0
 6-311+G(2d,p)
 ****
 36  37  40 0
 6-311+G(2d,p)
 ****
 1  2  3  4  5  16  17  18  19  20  21  22  23  24 0
 3-21G
 ****
 26  27  29  30  31  38  39 41  42  43  44  45  46  47  48 0
 3-21G
 ****


