%nproc=1
%NoSave
%Mem=1900MB
#P OB98/GEN NMR

erre ene a

0 1
  C       20.407      -0.373     -97.431
  O       20.145      -0.478     -96.048
  P       20.181      -1.862     -95.251
  C       17.896      -2.654     -94.302
  O       18.756      -2.584     -95.435
  C       17.003      -1.413     -94.150
  O       16.247      -1.214     -95.362
  C       15.979      -1.634     -93.033
  O       16.337      -1.404     -91.684
  C       14.724      -0.907     -93.498
  O       14.591       0.389     -92.911
  C       14.919      -0.793     -95.011
  N       10.201      -1.035     -96.846
  C       10.884       0.056     -96.347
  N       10.148       1.169     -96.139
  N       12.159       0.040     -96.058
  C       12.737      -1.172     -96.228
  C       12.167      -2.319     -96.729
  C       10.768      -2.277     -97.084
  O       10.106      -3.245     -97.451
  N       13.036      -3.379     -96.691
  C       14.120      -2.886     -96.130
  N       13.973      -1.561     -95.795
  O       20.803      -1.841     -93.893
  O       21.134      -2.751     -96.204
  H       14.591       0.281     -91.943
  H       21.650      -3.347     -95.628
  H        9.198      -0.987     -96.977
  H       15.020      -3.449     -95.913
  H       14.828       0.251     -95.335
  H       13.825      -1.467     -93.214
  H        9.141       1.172     -96.212
  H       15.712      -2.699     -93.057
  H       10.573       1.928     -95.618
  H       17.605      -0.510     -94.024
  H       18.526      -2.787     -93.418
  H       17.262      -3.542     -94.381
  P       15.852      -2.251     -90.417
  C       14.231      -1.075     -88.826
  O       14.366      -1.792     -90.040
  O       16.722      -1.674     -89.202
  O       16.042      -3.727     -90.536
  H       16.764      -2.334     -88.484
  H       13.182      -1.083     -88.522
  H       14.550      -0.039     -88.976
  H       14.834      -1.529     -88.034
  H       20.323       0.650     -97.733
  H       19.700      -0.965     -97.974
  H       21.397      -0.725     -97.634

 3  4  5  6  7  8  9  10  11  12  23  26  30  31 0
 6-311+G(2d,p)
 ****
 33  35  36  37  38 0
 6-311+G(2d,p)
 ****
 1  2  13  14  15  16  17  18  19  20  21  22  24  25 0
 3-21G
 ****
 27  28  29  32  34  39  40  41  42  43  44  45  46  47  48  49 0
 3-21G
 ****


