%nproc=1
%NoSave
%Mem=1900MB
#P OB98/GEN NMR

erre ene a

0 1
  C     -311.160     148.304     233.778
  O     -310.020     147.481     233.934
  H     -310.939     149.075     233.035
  H     -311.396     148.792     234.727
  H     -312.022     147.723     233.433
  P     -310.154     146.106     234.748
  C     -308.059     145.125     233.597
  O     -308.672     145.491     234.827
  C     -306.685     144.498     233.860
  O     -305.712     145.575     234.023
  C     -306.641     143.631     235.139
  O     -305.735     142.542     234.924
  C     -306.051     144.605     236.141
  O     -305.495     143.948     237.255
  C     -305.039     145.346     235.271
  N     -304.596     146.587     235.904
  C     -303.634     146.479     236.905
  O     -303.164     145.401     237.280
  N     -303.278     147.641     237.527
  C     -303.860     148.863     237.324
  O     -303.552     149.858     237.971
  C     -304.908     148.911     236.293
  C     -305.218     147.792     235.636
  O     -311.198     145.154     234.258
  O     -310.408     146.566     236.259
  H     -305.319     144.590     237.966
  H     -310.824     145.841     236.770
  H     -302.575     147.577     238.248
  H     -305.395     149.864     236.118
  H     -305.999     147.789     234.879
  H     -304.164     144.716     235.068
  H     -306.829     145.291     236.505
  H     -307.619     143.249     235.434
  H     -306.380     143.918     232.982
  H     -307.943     146.028     232.988
  H     -308.700     144.417     233.064
  P     -306.150     141.020     235.221
  C     -304.643     139.967     233.420
  O     -304.957     140.014     234.811
  O     -307.489     140.633     234.668
  O     -306.176     140.921     236.825
  H     -306.989     140.456     237.103
  H     -303.844     139.274     233.258
  H     -304.344     140.940     233.089
  H     -305.505     139.652     232.870

 6  7  8  9  10  11  12  13  14  15  16  26  31  32  33  34  35 0
 6-311+G(2d,p)
 ****
 36  37 0
 6-311+G(2d,p)
 ****
 1  2  3  4  5  17  18  19  20  21  22  23  24  25 0
 3-21G
 ****
 27  28  29  30  38  39  40  41  42  43  44  45 0
 3-21G
 ****


