%nproc=1
%NoSave
%Mem=1900MB
#P OB98/GEN NMR

erre ene a

0 1
  C      -20.968     321.576     538.244
  O      -22.030     320.687     537.884
  P      -21.790     319.108     537.709
  C      -21.219     319.069     535.202
  O      -20.742     318.829     536.524
  C      -20.894     317.931     534.228
  O      -21.565     316.697     534.620
  C      -21.287     318.199     532.769
  O      -20.332     317.500     531.967
  C      -22.652     317.538     532.677
  O      -23.061     317.260     531.345
  C      -22.413     316.292     533.528
  N      -25.881     312.587     532.837
  C      -24.664     312.787     532.293
  N      -23.783     313.775     532.552
  C      -24.248     314.590     533.515
  C      -25.469     314.508     534.169
  C      -26.313     313.449     533.783
  N      -27.573     313.266     534.301
  N      -25.610     315.540     535.072
  C      -24.499     316.240     534.956
  N      -23.641     315.703     534.033
  O      -23.047     318.305     537.603
  O      -20.984     318.685     539.025
  H      -24.013     317.072     531.349
  H      -21.373     317.868     539.391
  H      -24.355     312.063     531.538
  H      -24.271     317.148     535.495
  H      -21.881     315.516     532.966
  H      -23.404     318.197     533.126
  H      -21.312     319.259     532.511
  H      -19.822     317.731     534.298
  H      -20.773     319.996     534.839
  H      -28.142     312.538     533.899
  H      -27.962     313.970     534.915
  H      -22.304     319.216     535.248
  P      -19.606     318.191     530.722
  C      -20.244     316.874     528.625
  O      -20.560     317.979     529.455
  O      -18.192     317.779     530.509
  O      -19.723     319.763     531.009
  H      -19.063     320.245     530.479
  H      -19.383     317.117     527.999
  H      -21.103     316.660     527.976
  H      -20.027     315.988     529.224
  H      -21.345     322.575     538.306
  H      -20.198     321.530     537.503
  H      -20.567     321.287     539.193

 3  4  5  6  7  8  9  10  11  12  22  25  29  30  31  32 0
 6-311+G(2d,p)
 ****
 33  36  37 0
 6-311+G(2d,p)
 ****
 1  2  13  14  15  16  17  18  19  20  21  23  24  26 0
 3-21G
 ****
 27  28  34  35  38  39  40  41  42  43  44  45  46  47  48 0
 3-21G
 ****


