%nproc=1
%NoSave
%Mem=1900MB
#P OB98/GEN NMR

erre ene a

0 1
  C     -874.376    -529.859    1694.023
  O     -873.282    -530.087    1694.914
  P     -871.747    -529.826    1694.579
  C     -870.527    -531.977    1695.531
  O     -870.868    -530.598    1695.664
  C     -869.713    -532.459    1696.740
  O     -868.330    -532.042    1696.599
  C     -870.220    -531.880    1698.078
  O     -870.271    -532.820    1699.132
  C     -869.328    -530.650    1698.275
  O     -869.290    -530.180    1699.608
  C     -868.009    -531.145    1697.678
  N     -863.857    -528.265    1698.520
  C     -864.483    -529.185    1699.358
  N     -863.923    -529.344    1700.584
  N     -865.547    -529.876    1699.024
  C     -866.041    -529.539    1697.817
  C     -865.526    -528.639    1696.906
  C     -864.320    -527.937    1697.262
  O     -863.723    -527.096    1696.561
  N     -866.312    -528.587    1695.758
  C     -867.266    -529.439    1695.989
  N     -867.152    -530.053    1697.217
  O     -871.376    -528.423    1694.270
  O     -871.490    -530.714    1693.236
  H     -868.974    -530.917    1700.165
  H     -870.815    -530.238    1692.718
  H     -863.042    -527.773    1698.816
  H     -868.072    -529.665    1695.294
  H     -867.394    -531.681    1698.405
  H     -869.752    -529.836    1697.647
  H     -863.193    -528.777    1700.947
  H     -871.272    -531.560    1697.989
  H     -864.508    -529.850    1701.266
  H     -869.749    -533.571    1696.755
  H     -869.935    -532.062    1694.622
  H     -871.450    -532.566    1695.396
  P     -871.307    -534.022    1699.376
  C     -870.760    -534.113    1701.877
  O     -870.854    -534.869    1700.639
  O     -871.030    -535.051    1698.146
  O     -872.758    -533.598    1699.373
  H     -871.840    -535.129    1697.605
  H     -870.207    -534.734    1702.607
  H     -871.780    -533.963    1702.272
  H     -870.250    -533.172    1701.724
  H     -875.293    -530.120    1694.510
  H     -874.254    -530.461    1693.147
  H     -874.401    -528.826    1693.746

 3  4  5  6  7  8  9  10  11  12  23  26  30  31 0
 6-311+G(2d,p)
 ****
 33  35  36  37  38 0
 6-311+G(2d,p)
 ****
 1  2  13  14  15  16  17  18  19  20  21  22  24  25 0
 3-21G
 ****
 27  28  29  32  34  39  40  41  42  43  44  45  46  47  48  49 0
 3-21G
 ****


