%nproc=1
%NoSave
%Mem=1900MB
#P OB98/GEN NMR

erre ene a

0 1
  C      100.902      13.138     -30.653
  O      101.449      13.328     -31.944
  P      100.837      14.420     -32.939
  C       99.376      12.685     -34.129
  O       99.386      13.902     -33.393
  C       98.692      12.861     -35.484
  O       97.347      13.369     -35.273
  C       99.402      13.830     -36.440
  O       99.194      13.329     -37.765
  C       98.617      15.118     -36.254
  O       98.767      16.019     -37.345
  C       97.211      14.557     -36.082
  N       93.872      18.358     -36.820
  C       94.647      17.663     -37.680
  N       95.531      16.683     -37.402
  C       95.570      16.437     -36.082
  C       94.862      17.084     -35.083
  C       93.961      18.082     -35.496
  N       93.138      18.776     -34.637
  N       95.220      16.589     -33.842
  C       96.122      15.663     -34.092
  N       96.317      15.492     -35.435
  O      101.730      14.831     -34.062
  O      100.496      15.663     -31.989
  H       98.270      16.835     -37.142
  H      101.148      16.377     -32.132
  H       94.541      17.924     -38.730
  H       96.661      15.092     -33.349
  H       96.762      14.266     -37.039
  H       98.957      15.629     -35.345
  H      100.469      13.954     -36.236
  H       98.593      11.870     -35.947
  H       98.829      11.939     -33.543
  H       92.439      19.370     -35.053
  H       92.990      18.413     -33.698
  H      100.403      12.328     -34.269
  P      100.392      13.363     -38.829
  C       99.475      15.481     -39.936
  O      100.573      14.894     -39.263
  O      100.279      12.387     -39.953
  O      101.695      13.084     -37.934
  H      102.433      12.810     -38.510
  H       99.496      15.188     -40.989
  H       99.556      16.568     -39.868
  H       98.527      15.167     -39.492
  H      101.446      12.369     -30.145
  H       99.875      12.851     -30.740
  H      100.972      14.050     -30.098

 3  4  5  6  7  8  9  10  11  12  22  25  29  30  31  32 0
 6-311+G(2d,p)
 ****
 33  36  37 0
 6-311+G(2d,p)
 ****
 1  2  13  14  15  16  17  18  19  20  21  23  24  26 0
 3-21G
 ****
 27  28  34  35  38  39  40  41  42  43  44  45  46  47  48 0
 3-21G
 ****


