%nproc=1
%NoSave
%Mem=1900MB
#P OB98/GEN NMR

erre ene a

0 1
  C      323.339    -302.801     119.395
  O      323.366    -303.077     118.008
  H      322.780    -301.872     119.550
  H      324.348    -302.674     119.771
  H      322.830    -303.606     119.935
  P      324.053    -304.455     117.557
  C      322.159    -304.614     115.789
  O      323.553    -304.751     116.063
  C      321.929    -303.978     114.422
  O      322.456    -302.611     114.447
  C      322.608    -304.718     113.260
  O      321.760    -304.607     112.110
  C      323.861    -303.883     113.007
  O      324.387    -304.070     111.698
  C      323.306    -302.486     113.281
  N      326.658    -299.556     110.916
  C      325.679    -300.390     110.408
  N      325.570    -300.469     109.064
  N      324.868    -301.098     111.162
  C      325.066    -300.909     112.495
  C      325.995    -300.127     113.123
  C      326.902    -299.358     112.277
  O      327.799    -298.623     112.666
  N      325.890    -300.226     114.488
  C      324.907    -301.067     114.678
  N      324.362    -301.520     113.495
  O      323.275    -305.534     118.442
  O      325.537    -304.529     117.754
  H      325.013    -303.329     111.519
  H      323.766    -305.717     119.267
  H      327.259    -299.047     110.290
  H      324.526    -301.386     115.645
  H      322.695    -302.109     112.455
  H      324.638    -304.153     113.734
  H      326.128    -299.915     108.424
  H      322.826    -305.771     113.460
  H      324.833    -301.043     108.677
  H      320.847    -303.890     114.252
  H      321.706    -303.979     116.567
  H      321.688    -305.604     115.828
  P      321.158    -305.954     111.478
  C      318.601    -305.525     111.302
  O      319.848    -305.570     110.625
  O      320.540    -306.696     112.764
  O      322.156    -306.815     110.777
  H      320.544    -307.663     112.621
  H      317.829    -305.258     110.611
  H      318.646    -304.797     112.085
  H      318.388    -306.486     111.721

 6  7  8  9  10  11  12  13  14  15  26  29  33  34 0
 6-311+G(2d,p)
 ****
 36  38  39  40  41 0
 6-311+G(2d,p)
 ****
 1  2  3  4  5  16  17  18  19  20  21  22  23  24  25 0
 3-21G
 ****
 27  28  30  31  32  35  37  42  43  44  45  46  47 0
 3-21G
 ****
 48  49 0
 3-21G
 ****


