%nproc=1
%NoSave
%Mem=1900MB
#P OB98/GEN NMR

erre ene a

0 1
  C       92.325     -35.702     -87.956
  O       92.740     -34.783     -86.966
  H       91.258     -35.560     -88.142
  H       92.486     -36.726     -87.601
  H       92.872     -35.541     -88.888
  P       94.317     -34.683     -86.689
  C       94.452     -36.724     -85.089
  O       94.565     -35.315     -85.233
  C       95.632     -37.266     -84.285
  O       96.862     -37.095     -85.023
  C       95.844     -36.580     -82.939
  O       94.992     -37.113     -81.935
  C       97.299     -36.936     -82.672
  O       97.391     -38.302     -82.222
  C       97.918     -36.792     -84.067
  N      101.694     -34.190     -86.237
  C      101.495     -35.554     -86.142
  N      102.445     -36.339     -86.695
  N      100.464     -36.102     -85.553
  C       99.601     -35.196     -85.036
  C       99.685     -33.822     -85.066
  C      100.826     -33.229     -85.727
  O      101.039     -32.028     -85.860
  N       98.614     -33.239     -84.443
  C       97.892     -34.256     -84.015
  N       98.453     -35.468     -84.344
  O       94.556     -33.115     -86.453
  O       95.192     -35.207     -87.775
  H       98.328     -38.470     -82.017
  H       95.424     -32.870     -86.826
  H      102.510     -33.820     -86.690
  H       96.960     -34.171     -83.471
  H       98.732     -37.508     -84.239
  H       97.748     -36.311     -81.897
  H      103.287     -35.982     -87.121
  H       95.743     -35.490     -83.022
  H      102.305     -37.343     -86.669
  H       95.480     -38.346     -84.148
  H       94.444     -37.189     -86.080
  H       93.511     -36.954     -84.577
  P       93.653     -36.297     -81.584
  C       94.576     -33.879     -81.798
  O       94.148     -34.918     -80.927
  O       93.053     -37.107     -80.339
  O       92.676     -36.180     -82.704
  H       92.091     -36.946     -80.267
  H       94.874     -33.029     -81.220
  H       93.771     -33.604     -82.448
  H       95.405     -34.222     -82.382

 6  7  8  9  10  11  12  13  14  15  26  29  33  34 0
 6-311+G(2d,p)
 ****
 36  38  39  40  41 0
 6-311+G(2d,p)
 ****
 1  2  3  4  5  16  17  18  19  20  21  22  23  24  25 0
 3-21G
 ****
 27  28  30  31  32  35  37  42  43  44  45  46  47 0
 3-21G
 ****
 48  49 0
 3-21G
 ****


