%nproc=1
%NoSave
%Mem=1900MB
#P OB98/GEN NMR

erre ene a

0 1
  C      534.385     476.250     326.168
  O      534.261     475.370     325.067
  H      533.651     475.964     326.922
  H      534.179     477.277     325.852
  H      535.384     476.187     326.604
  P      535.299     475.509     323.847
  C      533.585     475.144     321.965
  O      534.714     474.616     322.646
  C      532.659     474.019     321.514
  O      533.366     473.178     320.567
  C      532.175     473.117     322.658
  O      530.815     472.752     322.404
  C      533.062     471.898     322.556
  O      532.441     470.727     323.085
  C      533.311     471.821     321.051
  N      535.328     468.122     318.263
  C      534.049     468.635     318.271
  N      533.157     468.061     317.424
  N      533.667     469.620     319.036
  C      534.658     470.104     319.818
  C      535.966     469.683     319.899
  C      536.373     468.583     319.061
  O      537.489     468.078     319.017
  N      536.665     470.412     320.839
  C      535.779     471.271     321.312
  N      534.545     471.121     320.740
  O      536.728     475.230     324.184
  O      535.089     477.007     323.331
  H      532.035     470.974     323.939
  H      535.792     477.589     323.674
  H      535.567     467.352     317.655
  H      535.980     472.012     322.081
  H      532.510     471.294     320.508
  H      533.998     472.067     323.104
  H      533.385     467.309     316.794
  H      532.247     473.600     323.643
  H      532.215     468.441     317.401
  H      531.807     474.456     320.975
  H      533.939     475.701     321.090
  H      533.043     475.829     322.633
  P      529.675     473.248     323.417
  C      527.735     471.554     323.269
  O      528.248     472.805     322.820
  O      529.772     474.675     323.851
  O      529.851     472.250     324.667
  H      529.578     472.717     325.476
  H      526.788     471.370     322.806
  H      527.614     471.579     324.332
  H      528.418     470.773     323.006

 6  7  8  9  10  11  12  13  14  15  26  29  33  34 0
 6-311+G(2d,p)
 ****
 36  38  39  40  41 0
 6-311+G(2d,p)
 ****
 1  2  3  4  5  16  17  18  19  20  21  22  23  24  25 0
 3-21G
 ****
 27  28  30  31  32  35  37  42  43  44  45  46  47 0
 3-21G
 ****
 48  49 0
 3-21G
 ****


