%nproc=1
%NoSave
%Mem=1900MB
#P OB98/GEN NMR

erre ene a

0 1
  C     -625.136    -236.196     246.399
  O     -623.950    -236.121     245.642
  H     -625.927    -235.666     245.861
  H     -624.986    -235.712     247.368
  H     -625.451    -237.233     246.552
  P     -622.778    -237.169     245.944
  C     -621.224    -235.332     246.885
  O     -621.871    -236.576     247.131
  C     -620.506    -234.809     248.131
  O     -621.479    -234.361     249.099
  C     -619.663    -235.889     248.819
  O     -618.347    -236.021     248.311
  C     -619.649    -235.402     250.265
  O     -618.558    -234.492     250.499
  C     -620.993    -234.681     250.410
  N     -623.859    -235.186     254.615
  C     -622.833    -234.296     254.370
  N     -622.512    -233.464     255.384
  N     -622.179    -234.244     253.237
  C     -622.545    -235.200     252.354
  C     -623.536    -236.155     252.492
  C     -624.302    -236.155     253.719
  O     -625.231    -236.912     253.979
  N     -623.592    -236.985     251.398
  C     -622.588    -236.593     250.647
  N     -621.975    -235.467     251.142
  O     -621.812    -237.025     244.671
  O     -623.213    -238.594     246.118
  H     -618.645    -233.755     249.865
  H     -621.386    -237.883     244.488
  H     -624.346    -235.162     255.492
  H     -622.291    -237.052     249.713
  H     -620.877    -233.731     250.947
  H     -619.513    -236.241     250.956
  H     -622.925    -233.519     256.302
  H     -620.174    -236.857     248.790
  H     -621.646    -232.926     255.312
  H     -619.899    -233.938     247.858
  H     -622.007    -234.632     246.581
  H     -620.526    -235.422     246.051
  P     -617.424    -237.251     248.734
  C     -615.625    -235.800     249.986
  O     -616.583    -236.833     250.027
  O     -616.318    -237.291     247.574
  O     -618.124    -238.561     248.880
  H     -616.540    -237.965     246.908
  H     -615.182    -235.685     250.953
  H     -616.100    -234.885     249.700
  H     -614.866    -236.046     249.273

 6  7  8  9  10  11  12  13  14  15  26  29  33  34 0
 6-311+G(2d,p)
 ****
 36  38  39  40  41 0
 6-311+G(2d,p)
 ****
 1  2  3  4  5  16  17  18  19  20  21  22  23  24  25 0
 3-21G
 ****
 27  28  30  31  32  35  37  42  43  44  45  46  47 0
 3-21G
 ****
 48  49 0
 3-21G
 ****


