%nproc=1
%NoSave
%Mem=1900MB
#P OB98/GEN NMR

erre ene a

0 1
  C     -518.198     116.284    1014.579
  O     -518.322     117.512    1013.889
  H     -518.859     115.548    1014.115
  H     -518.476     116.407    1015.626
  H     -517.164     115.919    1014.510
  P     -517.505     118.757    1014.488
  C     -515.521     117.565    1013.282
  O     -515.974     118.261    1014.436
  C     -514.190     118.153    1012.812
  O     -513.194     118.041    1013.851
  C     -513.580     117.455    1011.585
  O     -514.195     117.822    1010.373
  C     -512.157     117.967    1011.678
  O     -512.113     119.341    1011.251
  C     -511.905     117.848    1013.200
  N     -511.324     116.558    1013.586
  C     -510.062     116.594    1014.199
  O     -509.484     117.668    1014.381
  N     -509.470     115.406    1014.546
  C     -510.069     114.285    1014.338
  N     -509.424     113.141    1014.709
  C     -511.404     114.197    1013.707
  C     -511.965     115.352    1013.369
  O     -517.837     118.702    1016.049
  O     -517.756     120.084    1013.847
  H     -511.201     119.640    1011.353
  H     -517.264     119.342    1016.544
  H     -511.877     113.238    1013.543
  H     -512.943     115.373    1012.912
  H     -511.230     118.652    1013.557
  H     -511.459     117.408    1011.057
  H     -513.574     116.364    1011.713
  H     -514.343     119.221    1012.614
  H     -508.489     113.226    1015.075
  H     -516.277     117.670    1012.495
  H     -509.761     112.223    1014.446
  H     -515.384     116.507    1013.504
  P     -514.947     116.664    1009.547
  C     -517.327     117.713    1009.742
  O     -516.467     116.627    1010.064
  O     -514.319     115.323    1010.159
  O     -514.780     116.737    1008.066
  H     -514.238     114.626    1009.476
  H     -518.297     117.535    1010.157
  H     -517.405     117.803    1008.679
  H     -516.926     118.618    1010.148

 6  7  8  9  10  11  12  13  14  15  16  26  30  31  32  33  35 0
 6-311+G(2d,p)
 ****
 37  38 0
 6-311+G(2d,p)
 ****
 1  2  3  4  5  17  18  19  20  21  22  23  24  25 0
 3-21G
 ****
 27  28  29  34  36  39  40  41  42  43  44  45  46 0
 3-21G
 ****


