%nproc=1
%NoSave
%Mem=1900MB
#P OB98/GEN NMR

erre ene a

0 1
  C      389.599    1169.746     539.572
  O      389.109    1168.423     539.751
  H      390.524    1169.857     540.137
  H      388.868    1170.462     539.943
  H      389.806    1169.935     538.510
  P      387.853    1167.988     538.847
  C      386.748    1166.793     540.907
  O      387.230    1166.699     539.573
  C      386.845    1165.440     541.606
  O      385.699    1164.628     541.242
  C      388.104    1164.635     541.224
  O      388.565    1163.937     542.385
  C      387.604    1163.638     540.191
  O      388.432    1162.490     540.106
  C      386.159    1163.395     540.671
  N      385.281    1162.915     539.603
  C      385.146    1161.537     539.466
  O      385.768    1160.782     540.212
  N      384.348    1161.050     538.453
  C      383.790    1161.870     537.623
  N      383.024    1161.319     536.639
  C      383.945    1163.335     537.708
  C      384.679    1163.799     538.724
  O      388.577    1167.384     537.563
  O      386.892    1169.099     538.561
  H      388.623    1162.186     541.024
  H      389.359    1166.844     537.759
  H      383.467    1163.992     536.982
  H      384.857    1164.846     538.855
  H      386.161    1162.631     541.488
  H      387.578    1164.125     539.204
  H      388.911    1165.253     540.832
  H      386.790    1165.585     542.695
  H      382.959    1160.312     536.604
  H      385.706    1167.117     540.909
  H      382.583    1161.860     535.911
  H      387.347    1167.538     541.436
  P      389.895    1164.423     543.113
  C      391.009    1162.098     543.275
  O      390.495    1163.213     543.986
  O      389.813    1165.738     543.826
  O      390.958    1164.506     541.897
  H      391.523    1165.298     542.052
  H      391.374    1161.370     543.969
  H      391.808    1162.418     542.640
  H      390.232    1161.665     542.680

 6  7  8  9  10  11  12  13  14  15  16  26  30  31  32  33  35 0
 6-311+G(2d,p)
 ****
 37  38 0
 6-311+G(2d,p)
 ****
 1  2  3  4  5  17  18  19  20  21  22  23  24  25 0
 3-21G
 ****
 27  28  29  34  36  39  40  41  42  43  44  45  46 0
 3-21G
 ****


