%nproc=1
%NoSave
%Mem=1900MB
#P OB98/GEN NMR

erre ene a

0 1
  C      -63.663     -18.101     -63.446
  O      -62.490     -17.446     -63.002
  H      -63.411     -18.736     -64.301
  H      -64.410     -17.365     -63.764
  H      -64.070     -18.726     -62.647
  P      -62.670     -16.413     -61.787
  C      -63.835     -14.787     -63.436
  O      -63.896     -15.455     -62.184
  C      -64.767     -13.577     -63.444
  O      -64.324     -12.596     -64.409
  C      -66.217     -13.905     -63.785
  O      -66.920     -14.354     -62.639
  C      -66.718     -12.560     -64.290
  O      -67.037     -11.679     -63.188
  C      -65.497     -12.037     -65.067
  N      -67.801     -11.297     -69.500
  C      -68.135     -10.852     -68.238
  N      -69.266     -10.120     -68.130
  N      -67.430     -11.104     -67.166
  C      -66.355     -11.893     -67.408
  C      -65.920     -12.403     -68.612
  C      -66.681     -12.066     -69.800
  O      -66.389     -12.360     -70.956
  N      -64.776     -13.146     -68.454
  C      -64.538     -13.114     -67.157
  N      -65.476     -12.373     -66.475
  O      -61.391     -15.453     -61.921
  O      -62.740     -17.028     -60.428
  H      -67.804     -12.038     -62.709
  H      -61.074     -15.229     -61.028
  H      -68.363     -11.045     -70.294
  H      -63.710     -13.600     -66.661
  H      -65.411     -10.946     -65.003
  H      -67.631     -12.663     -64.878
  H      -69.983     -10.141     -68.842
  H      -66.275     -14.641     -64.597
  H      -69.548      -9.860     -67.194
  H      -64.705     -13.105     -62.455
  H      -64.133     -15.484     -64.223
  H      -62.804     -14.459     -63.618
  P      -67.716     -15.743     -62.732
  C      -69.936     -14.533     -63.325
  O      -68.986     -15.521     -63.692
  O      -68.370     -15.874     -61.272
  O      -66.866     -16.926     -63.052
  H      -67.883     -16.549     -60.756
  H      -70.718     -14.501     -64.055
  H      -69.456     -13.578     -63.275
  H      -70.350     -14.775     -62.369

 6  7  8  9  10  11  12  13  14  15  26  29  33  34 0
 6-311+G(2d,p)
 ****
 36  38  39  40  41 0
 6-311+G(2d,p)
 ****
 1  2  3  4  5  16  17  18  19  20  21  22  23  24  25 0
 3-21G
 ****
 27  28  30  31  32  35  37  42  43  44  45  46  47 0
 3-21G
 ****
 48  49 0
 3-21G
 ****


