%nproc=1
%NoSave
%Mem=1900MB
#P OB98/GEN NMR

erre ene a

0 1
  C      -38.562    -471.970      39.667
  O      -39.185    -471.172      38.678
  H      -38.720    -473.022      39.413
  H      -39.006    -471.779      40.649
  H      -37.486    -471.777      39.695
  P      -39.103    -469.576      38.823
  C      -40.244    -467.885      40.424
  O      -39.987    -469.253      40.126
  C      -41.698    -467.703      40.856
  O      -41.986    -468.441      42.062
  C      -42.092    -466.266      41.182
  O      -42.233    -465.442      40.040
  C      -43.419    -466.518      41.886
  O      -44.430    -466.829      40.910
  C      -43.069    -467.750      42.746
  N      -42.662    -467.391      44.107
  C      -43.556    -467.723      45.132
  O      -44.624    -468.277      44.883
  N      -43.235    -467.388      46.433
  C      -42.129    -466.752      46.675
  N      -41.862    -466.435      47.973
  C      -41.167    -466.366      45.621
  C      -41.494    -466.715      44.376
  O      -39.447    -468.787      37.596
  O      -37.621    -469.299      39.362
  H      -44.107    -467.595      40.403
  H      -37.513    -468.319      39.461
  H      -40.272    -465.814      45.876
  H      -40.840    -466.461      43.551
  H      -43.916    -468.446      42.798
  H      -43.770    -465.658      42.453
  H      -41.392    -465.824      41.905
  H      -42.330    -468.128      40.059
  H      -42.540    -466.713      48.672
  H      -40.019    -467.295      39.531
  H      -41.064    -465.879      48.249
  H      -39.593    -467.559      41.242
  P      -42.088    -463.853      40.270
  C      -42.570    -462.373      42.371
  O      -42.914    -463.516      41.610
  O      -42.986    -463.233      39.099
  O      -40.683    -463.334      40.264
  H      -42.424    -462.960      38.346
  H      -43.216    -462.303      43.221
  H      -42.678    -461.496      41.767
  H      -41.555    -462.456      42.700

 6  7  8  9  10  11  12  13  14  15  16  26  30  31  32  33  35 0
 6-311+G(2d,p)
 ****
 37  38 0
 6-311+G(2d,p)
 ****
 1  2  3  4  5  17  18  19  20  21  22  23  24  25 0
 3-21G
 ****
 27  28  29  34  36  39  40  41  42  43  44  45  46 0
 3-21G
 ****


