%nproc=1
%NoSave
%Mem=1900MB
#P OB98/GEN NMR

erre ene a

0 1
  C      462.325      69.585     -88.640
  O      461.638      69.677     -89.876
  P      460.367      70.662     -89.930
  C      460.516      70.108     -92.473
  O      459.701      70.464     -91.370
  C      459.654      70.026     -93.740
  O      458.901      71.239     -93.908
  C      460.453      69.836     -95.029
  O      460.798      68.479     -95.203
  C      459.482      70.372     -96.070
  O      458.503      69.376     -96.413
  C      458.828      71.552     -95.331
  N      459.197      75.385     -98.610
  C      458.575      74.146     -98.745
  N      457.927      73.929     -99.909
  N      458.597      73.222     -97.816
  C      459.290      73.578     -96.719
  C      459.963      74.764     -96.473
  C      459.887      75.799     -97.477
  O      460.328      76.933     -97.370
  N      460.575      74.742     -95.253
  C      460.253      73.565     -94.742
  N      459.465      72.831     -95.590
  O      461.034      72.110     -90.005
  O      459.410      70.531     -88.784
  H      458.942      68.601     -96.809
  H      461.052      72.533     -89.118
  H      459.135      76.065     -99.341
  H      460.551      73.209     -93.773
  H      457.769      71.661     -95.588
  H      459.982      70.642     -97.005
  H      457.882      74.588    -100.673
  H      461.357      70.466     -95.015
  H      457.475      73.033    -100.026
  H      458.940      69.198     -93.616
  H      460.969      69.132     -92.286
  H      461.307      70.850     -92.594
  P      462.350      68.122     -95.408
  C      462.138      65.725     -94.453
  O      462.465      66.534     -95.566
  O      462.998      68.426     -93.972
  O      463.029      68.921     -96.475
  H      463.894      68.793     -94.090
  H      461.759      64.765     -94.819
  H      461.382      66.192     -93.813
  H      463.038      65.546     -93.861
  H      463.143      68.903     -88.737
  H      461.654      69.233     -87.885
  H      462.696      70.550     -88.365

 3  4  5  6  7  8  9  10  11  12  23  26  30  31 0
 6-311+G(2d,p)
 ****
 33  35  36  37  38 0
 6-311+G(2d,p)
 ****
 1  2  13  14  15  16  17  18  19  20  21  22  24  25 0
 3-21G
 ****
 27  28  29  32  34  39  40  41  42  43  44  45  46  47  48  49 0
 3-21G
 ****


