%nproc=1
%NoSave
%Mem=1900MB
#P OB98/GEN NMR

erre ene a

0 1
  C     -132.652    1121.169    -209.469
  O     -132.190    1120.421    -208.362
  H     -131.854    1121.833    -209.803
  H     -133.513    1121.782    -209.196
  H     -132.920    1120.504    -210.306
  P     -133.147    1119.293    -207.740
  C     -131.765    1117.130    -207.839
  O     -132.181    1118.214    -207.026
  C     -130.746    1116.274    -207.112
  O     -129.478    1116.953    -207.109
  C     -131.117    1115.988    -205.640
  O     -130.722    1114.654    -205.327
  C     -130.253    1116.967    -204.865
  O     -129.989    1116.518    -203.544
  C     -129.021    1117.074    -205.740
  N     -125.038    1119.251    -203.496
  C     -125.404    1117.935    -203.564
  N     -124.617    1117.036    -202.906
  N     -126.472    1117.497    -204.214
  C     -127.164    1118.500    -204.832
  C     -126.901    1119.841    -204.826
  C     -125.734    1120.297    -204.102
  O     -125.364    1121.480    -203.997
  N     -127.856    1120.524    -205.550
  C     -128.692    1119.574    -205.972
  N     -128.316    1118.334    -205.543
  O     -134.151    1118.706    -208.676
  O     -133.848    1120.027    -206.500
  H     -129.319    1117.122    -203.159
  H     -134.749    1120.312    -206.723
  H     -124.220    1119.540    -202.976
  H     -129.555    1119.760    -206.586
  H     -128.269    1116.271    -205.548
  H     -130.781    1117.933    -204.802
  H     -123.795    1117.293    -202.386
  H     -132.191    1116.113    -205.440
  H     -124.862    1116.068    -202.952
  H     -130.600    1115.335    -207.669
  H     -131.325    1117.532    -208.755
  H     -132.636    1116.516    -208.116
  P     -131.792    1113.630    -204.739
  C     -131.954    1111.691    -206.456
  O     -131.401    1112.148    -205.201
  O     -133.237    1114.000    -204.994
  O     -131.472    1113.599    -203.171
  H     -132.281    1113.427    -202.682
  H     -131.620    1110.693    -206.651
  H     -131.629    1112.336    -207.245
  H     -133.023    1111.705    -206.401

 6  7  8  9  10  11  12  13  14  15  26  29  33  34 0
 6-311+G(2d,p)
 ****
 36  38  39  40  41 0
 6-311+G(2d,p)
 ****
 1  2  3  4  5  16  17  18  19  20  21  22  23  24  25 0
 3-21G
 ****
 27  28  30  31  32  35  37  42  43  44  45  46  47 0
 3-21G
 ****
 48  49 0
 3-21G
 ****


