%nproc=1
%NoSave
%Mem=1900MB
#P OB98/GEN NMR

erre ene a

0 1
  C     -143.811     157.659      -4.184
  O     -142.571     157.026      -4.460
  P     -141.326     157.857      -5.035
  C     -140.963     156.111      -6.887
  O     -140.399     156.767      -5.757
  C     -139.905     155.257      -7.579
  O     -138.885     156.134      -8.110
  C     -139.158     154.267      -6.688
  O     -139.826     153.029      -6.489
  C     -137.902     154.031      -7.516
  O     -138.188     153.111      -8.584
  C     -137.620     155.428      -8.078
  N     -132.716     156.803      -7.595
  C     -133.364     156.078      -8.533
  N     -134.669     155.738      -8.581
  C     -135.333     156.268      -7.541
  C     -134.812     157.032      -6.510
  C     -133.434     157.300      -6.561
  N     -132.780     158.060      -5.614
  N     -135.802     157.379      -5.611
  C     -136.900     156.844      -6.104
  N     -136.670     156.171      -7.271
  O     -140.649     158.728      -4.035
  O     -141.935     158.680      -6.263
  H     -138.381     152.249      -8.172
  H     -141.331     159.407      -6.510
  H     -132.750     155.717      -9.355
  H     -137.878     156.915      -5.648
  H     -137.238     155.397      -9.105
  H     -137.083     153.598      -6.935
  H     -138.878     154.724      -5.730
  H     -140.377     154.741      -8.424
  H     -141.320     156.877      -7.586
  H     -131.822     158.308      -5.800
  H     -133.340     158.562      -4.939
  H     -141.817     155.507      -6.573
  P     -140.490     152.778      -5.046
  C     -139.828     150.352      -4.325
  O     -140.757     151.198      -4.962
  O     -141.663     153.644      -4.745
  O     -139.259     152.997      -4.046
  H     -138.555     152.332      -4.106
  H     -140.266     149.354      -4.234
  H     -139.588     150.717      -3.322
  H     -138.914     150.279      -4.920
  H     -144.505     156.936      -3.811
  H     -144.197     158.094      -5.082
  H     -143.665     158.425      -3.451

 3  4  5  6  7  8  9  10  11  12  22  25  29  30  31  32 0
 6-311+G(2d,p)
 ****
 33  36  37 0
 6-311+G(2d,p)
 ****
 1  2  13  14  15  16  17  18  19  20  21  23  24  26 0
 3-21G
 ****
 27  28  34  35  38  39  40  41  42  43  44  45  46  47  48 0
 3-21G
 ****


