%nproc=1
%NoSave
%Mem=1900MB
#P OB98/GEN NMR

erre ene a

0 1
  C       98.943     131.167      72.486
  O      100.252     131.629      72.750
  H       98.919     130.084      72.637
  H       98.661     131.382      71.453
  H       98.230     131.630      73.173
  P      100.577     133.183      72.537
  C      100.789     135.189      74.146
  O      100.171     133.930      73.898
  C       99.916     136.028      75.088
  O       98.585     136.085      74.520
  C       99.816     135.419      76.493
  O      100.151     136.341      77.528
  C       98.416     134.815      76.513
  O       97.840     134.706      77.798
  C       97.640     135.706      75.538
  N       96.472     135.058      74.944
  C       95.557     134.472      75.812
  O       95.640     134.478      77.038
  N       94.486     133.860      75.215
  C       94.252     133.771      73.875
  O       93.272     133.213      73.400
  C       95.268     134.389      73.009
  C       96.315     134.993      73.573
  O      100.019     133.796      71.297
  O      102.177     133.249      72.556
  H       97.776     135.608      78.174
  H      102.511     133.335      71.643
  H       93.810     133.442      75.834
  H       95.121     134.328      71.940
  H       97.083     135.463      72.964
  H       97.297     136.613      76.036
  H       98.476     133.801      76.100
  H      100.550     134.616      76.625
  H      100.309     137.050      75.116
  H      100.910     135.699      73.186
  H      101.775     135.033      74.596
  P      101.608     136.502      78.162
  C      103.652     136.105      76.570
  O      102.608     136.965      77.003
  O      102.057     135.383      79.038
  O      101.464     137.817      79.087
  H      102.062     137.687      79.851
  H      104.211     136.585      75.794
  H      103.232     135.195      76.196
  H      104.299     135.887      77.394

 6  7  8  9  10  11  12  13  14  15  16  26  31  32  33  34  35 0
 6-311+G(2d,p)
 ****
 36  37 0
 6-311+G(2d,p)
 ****
 1  2  3  4  5  17  18  19  20  21  22  23  24  25 0
 3-21G
 ****
 27  28  29  30  38  39  40  41  42  43  44  45 0
 3-21G
 ****


