%nproc=1
%NoSave
%Mem=1900MB
#P OB98/GEN NMR

erre ene a

0 1
  C      -64.859     -60.870      14.050
  O      -65.089     -60.849      15.470
  P      -64.642     -59.638      16.420
  C      -65.227     -58.797      18.797
  O      -65.282     -59.879      17.872
  C      -66.163     -59.055      19.992
  O      -67.547     -58.930      19.572
  C      -66.079     -60.454      20.598
  O      -64.899     -60.635      21.359
  C      -67.368     -60.490      21.412
  O      -67.201     -59.882      22.699
  C      -68.336     -59.648      20.558
  N      -69.371     -60.444      19.919
  C      -70.479     -60.776      20.710
  O      -70.505     -60.472      21.900
  N      -71.522     -61.459      20.120
  C      -71.414     -61.869      18.892
  N      -72.481     -62.523      18.361
  C      -70.208     -61.650      18.067
  C      -69.238     -60.932      18.638
  O      -64.930     -58.281      15.857
  O      -63.070     -59.840      16.658
  H      -62.656     -58.982      16.848
  H      -68.073     -59.915      23.148
  H      -70.149     -62.037      17.064
  H      -68.327     -60.716      18.099
  H      -68.802     -58.870      21.174
  H      -67.712     -61.519      21.585
  H      -66.128     -61.196      19.796
  H      -65.961     -58.291      20.754
  H      -73.299     -62.643      18.951
  H      -65.548     -57.885      18.286
  H      -72.512     -62.859      17.410
  H      -64.192     -58.667      19.138
  P      -63.935     -61.838      20.925
  C      -61.425     -62.327      21.386
  O      -62.647     -61.802      21.874
  O      -63.371     -61.378      19.496
  O      -64.607     -63.171      20.835
  H      -63.316     -62.144      18.896
  H      -60.600     -61.821      21.893
  H      -61.326     -62.188      20.305
  H      -61.378     -63.397      21.620
  H      -65.246     -61.779      13.639
  H      -63.808     -60.811      13.858
  H      -65.352     -60.036      13.596

 3  4  5  6  7  8  9  10  11  12  13  24  27  28  29  30  32 0
 6-311+G(2d,p)
 ****
 34  35 0
 6-311+G(2d,p)
 ****
 1  2  14  15  16  17  18  19  20  21  22  23  25  26 0
 3-21G
 ****
 31  33  36  37  38  39  40  41  42  43  44  45  46 0
 3-21G
 ****


