%nproc=1
%NoSave
%Mem=1900MB
#P OB98/GEN NMR

erre ene a

0 1
  C      -43.490     -11.924     148.510
  O      -44.844     -12.270     148.297
  H      -43.178     -11.227     147.728
  H      -42.864     -12.818     148.452
  H      -43.363     -11.442     149.484
  P      -45.581     -13.099     149.454
  C      -45.522     -15.616     150.097
  O      -44.815     -14.506     149.566
  C      -44.681     -16.886     149.957
  O      -44.504     -17.171     148.540
  C      -43.284     -16.781     150.583
  O      -42.942     -18.054     151.143
  C      -42.391     -16.507     149.387
  O      -41.032     -16.872     149.585
  C      -43.090     -17.342     148.309
  N      -42.725     -16.931     146.955
  C      -41.838     -17.746     146.257
  O      -41.409     -18.824     146.662
  N      -41.442     -17.272     145.033
  C      -41.816     -16.089     144.467
  O      -41.408     -15.711     143.374
  C      -42.746     -15.269     145.255
  C      -43.148     -15.719     146.445
  O      -46.979     -13.490     148.780
  O      -45.752     -12.379     150.750
  H      -47.646     -12.799     148.950
  H      -40.566     -16.736     148.736
  H      -40.799     -17.849     144.514
  H      -43.055     -14.318     144.842
  H      -43.818     -15.129     147.062
  H      -42.864     -18.407     148.445
  H      -42.422     -15.441     149.135
  H      -43.194     -16.005     151.351
  H      -45.240     -17.727     150.385
  H      -46.459     -15.747     149.546
  H      -45.755     -15.427     151.150
  P      -42.371     -18.072     152.643
  C      -40.225     -17.048     153.747
  O      -41.108     -17.085     152.632
  O      -41.735     -19.535     152.714
  O      -43.416     -17.783     153.667
  H      -41.343     -19.822     151.871
  H      -39.447     -16.337     153.563
  H      -39.795     -18.017     153.894
  H      -40.769     -16.763     154.623

 6  7  8  9  10  11  12  13  14  15  16  27  31  32  33  34  35 0
 6-311+G(2d,p)
 ****
 36  37 0
 6-311+G(2d,p)
 ****
 1  2  3  4  5  17  18  19  20  21  22  23  24  25 0
 3-21G
 ****
 26  28  29  30  38  39  40  41  42  43  44  45 0
 3-21G
 ****


