%nproc=1
%NoSave
%Mem=1900MB
#P OB98/GEN NMR

erre ene a

0 1
  C      193.271    1010.626     536.155
  O      194.058    1011.773     536.410
  P      193.482    1013.194     535.936
  C      193.180    1014.375     533.634
  O      193.362    1013.155     534.343
  C      194.199    1014.450     532.483
  O      194.086    1013.299     531.620
  C      193.996    1015.660     531.573
  O      194.521    1016.837     532.165
  C      194.737    1015.227     530.312
  O      196.147    1015.471     530.428
  C      194.456    1013.712     530.287
  N      193.439    1013.339     529.299
  C      193.908    1012.941     528.065
  O      195.113    1012.911     527.778
  N      192.964    1012.607     527.135
  C      191.609    1012.698     527.309
  O      190.810    1012.441     526.415
  C      191.160    1013.155     528.629
  C      192.078    1013.455     529.552
  O      194.676    1014.210     536.213
  O      192.227    1013.615     536.632
  H      196.584    1014.876     529.778
  H      194.324    1015.078     536.504
  H      193.278    1012.296     526.233
  H      190.100    1013.227     528.800
  H      191.779    1013.810     530.535
  H      195.371    1013.161     530.047
  H      194.389    1015.759     529.432
  H      192.923    1015.773     531.344
  H      195.209    1014.463     532.909
  H      193.328    1015.214     534.306
  H      192.161    1014.405     533.241
  P      193.777    1018.220     531.800
  C      193.406    1019.373     529.473
  O      194.219    1018.546     530.284
  O      194.595    1019.259     532.704
  O      192.314    1018.189     532.080
  H      195.536    1018.989     532.805
  H      192.936    1020.168     530.060
  H      192.641    1018.764     528.995
  H      194.026    1019.827     528.705
  H      193.776    1009.758     536.523
  H      193.114    1010.528     535.101
  H      192.327    1010.725     536.648

 3  4  5  6  7  8  9  10  11  12  13  23  28  29  30  31  32 0
 6-311+G(2d,p)
 ****
 33  34 0
 6-311+G(2d,p)
 ****
 1  2  14  15  16  17  18  19  20  21  22  24  25  26 0
 3-21G
 ****
 27  35  36  37  38  39  40  41  42  43  44  45 0
 3-21G
 ****


