%nproc=1
%NoSave
%Mem=1900MB
#P OB98/GEN NMR

erre ene a

0 1
  C      378.712      89.580     341.749
  O      377.731      89.542     340.730
  H      378.311      90.137     342.600
  H      379.614      90.082     341.389
  H      378.953      88.564     342.073
  P      378.136      88.794     339.371
  C      377.745      86.252     339.549
  O      377.153      87.523     339.308
  C      377.763      85.421     338.267
  O      378.557      84.230     338.500
  C      376.373      84.970     337.814
  O      376.305      85.018     336.388
  C      376.296      83.524     338.275
  O      375.386      82.752     337.501
  C      377.756      83.086     338.161
  N      378.801      78.096     338.361
  C      378.685      78.955     337.325
  N      378.419      80.279     337.362
  C      378.316      80.705     338.634
  C      378.407      79.950     339.788
  C      378.656      78.577     339.618
  N      378.750      77.692     340.664
  N      378.201      80.742     340.901
  C      378.004      81.956     340.428
  N      378.048      81.980     339.057
  O      379.588      88.488     339.209
  O      377.512      89.768     338.267
  H      375.449      81.818     337.795
  H      376.613      90.057     338.511
  H      378.815      78.523     336.335
  H      377.812      82.840     341.024
  H      378.018      82.762     337.148
  H      375.964      83.492     339.321
  H      375.575      85.577     338.242
  H      378.273      85.992     337.483
  H      377.185      85.718     340.323
  H      378.944      76.722     340.456
  H      378.664      78.029     341.613
  H      378.764      86.419     339.911
  P      375.700      86.333     335.698
  C      377.429      88.239     335.477
  O      376.873      87.070     334.883
  O      374.879      87.216     336.578
  O      374.804      85.721     334.515
  H      373.994      86.262     334.422
  H      378.194      88.633     334.841
  H      377.849      87.990     336.429
  H      376.661      88.973     335.607

 6  7  8  9  10  11  12  13  14  15  25  28  32  33  34  35 0
 6-311+G(2d,p)
 ****
 36  39  40 0
 6-311+G(2d,p)
 ****
 1  2  3  4  5  16  17  18  19  20  21  22  23  24 0
 3-21G
 ****
 26  27  29  30  31  37  38  41  42  43  44  45  46  47 0
 3-21G
 ****
 48 0
 3-21G
 ****


