%nproc=1
%NoSave
%Mem=1900MB
#P OB98/GEN NMR

erre ene a

0 1
  C      337.031     -89.095    -293.639
  O      338.253     -88.391    -293.379
  P      339.025     -88.698    -292.005
  C      338.596     -88.466    -289.469
  O      338.053     -88.331    -290.778
  C      338.182     -87.278    -288.577
  O      338.849     -86.078    -289.061
  C      336.683     -86.951    -288.593
  O      335.835     -87.603    -287.651
  C      336.695     -85.473    -288.216
  O      336.779     -85.325    -286.783
  C      337.978     -84.945    -288.857
  N      335.920     -80.806    -291.069
  C      335.995     -81.200    -289.777
  N      336.561     -82.315    -289.275
  C      337.098     -83.061    -290.251
  C      337.103     -82.790    -291.613
  C      336.475     -81.601    -292.017
  N      336.385     -81.207    -293.340
  N      337.745     -83.793    -292.310
  C      338.103     -84.663    -291.388
  N      337.755     -84.264    -290.127
  O      340.412     -88.159    -291.904
  O      339.033     -90.303    -291.961
  H      336.569     -84.390    -286.592
  H      339.883     -90.610    -291.585
  H      335.540     -80.527    -289.048
  H      338.622     -85.598    -291.583
  H      338.513     -84.235    -288.207
  H      335.786     -84.952    -288.530
  H      336.266     -87.071    -289.610
  H      338.514     -87.461    -287.548
  H      339.684     -88.520    -289.525
  H      335.877     -80.359    -293.542
  H      336.738     -81.816    -294.056
  H      338.253     -89.429    -289.064
  P      334.760     -88.693    -288.114
  C      332.312     -88.505    -289.039
  O      333.528     -87.855    -288.715
  O      334.375     -89.692    -287.069
  O      335.436     -89.328    -289.423
  H      335.490     -88.717    -290.176
  H      331.546     -87.746    -289.225
  H      331.982     -89.147    -288.221
  H      332.449     -89.102    -289.950
  H      336.636     -88.787    -294.585
  H      336.322     -88.876    -292.868
  H      337.223     -90.147    -293.658

 3  4  5  6  7  8  9  10  11  12  22  25  29  30  31  32 0
 6-311+G(2d,p)
 ****
 33  36  37 0
 6-311+G(2d,p)
 ****
 1  2  13  14  15  16  17  18  19  20  21  23  24  26 0
 3-21G
 ****
 27  28  34  35  38  39  40  41  42  43  44  45  46  47  48 0
 3-21G
 ****


