%nproc=1
%NoSave
%Mem=1900MB
#P OB98/GEN NMR

erre ene a

0 1
  C     -467.112    -502.025     179.640
  O     -468.420    -501.584     179.973
  P     -469.518    -501.598     178.804
  C     -472.117    -501.477     178.808
  O     -470.931    -501.782     179.533
  C     -473.345    -501.655     179.695
  O     -473.537    -503.045     180.009
  C     -473.251    -500.938     181.035
  O     -473.490    -499.551     180.876
  C     -474.323    -501.661     181.841
  O     -475.615    -501.070     181.633
  C     -474.270    -503.098     181.256
  N     -473.683    -504.054     182.177
  C     -474.587    -504.762     182.979
  O     -475.797    -504.534     182.893
  N     -474.099    -505.667     183.887
  C     -472.809    -505.850     183.980
  N     -472.382    -506.764     184.890
  C     -471.828    -505.111     183.163
  C     -472.327    -504.230     182.300
  O     -469.279    -503.008     178.089
  O     -469.427    -500.455     177.845
  H     -476.236    -501.607     182.165
  H     -469.567    -502.980     177.159
  H     -470.772    -505.305     183.288
  H     -471.669    -503.650     181.660
  H     -475.279    -503.442     181.001
  H     -474.121    -501.622     182.916
  H     -472.269    -501.104     181.486
  H     -474.231    -501.309     179.135
  H     -473.083    -507.253     185.439
  H     -472.200    -502.156     177.950
  H     -471.412    -506.998     185.029
  H     -472.053    -500.450     178.432
  P     -472.996    -498.574     182.045
  C     -472.345    -496.093     182.154
  O     -472.895    -497.133     181.361
  O     -471.456    -498.983     182.200
  O     -473.725    -498.646     183.349
  H     -471.060    -498.521     182.960
  H     -472.186    -495.216     181.524
  H     -471.388    -496.406     182.582
  H     -473.041    -495.832     182.959
  H     -466.484    -501.965     180.505
  H     -466.713    -501.404     178.866
  H     -467.153    -503.038     179.299

 3  4  5  6  7  8  9  10  11  12  13  21  23  27  28  29  30  32 0
 6-311+G(2d,p)
 ****
 34  35 0
 6-311+G(2d,p)
 ****
 1  2  14  15  16  17  18  19  20  22  24  25  26 0
 3-21G
 ****
 31  33  36  37  38  39  40  41  42  43  44  45  46 0
 3-21G
 ****


