%nproc=1
%NoSave
%Mem=1900MB
#P OB98/GEN NMR

erre ene a

0 1
  C      365.985     423.663    -487.734
  O      364.759     423.681    -488.450
  P      364.812     424.005    -490.020
  C      364.024     426.455    -489.736
  O      363.744     425.171    -490.282
  C      363.053     427.498    -490.264
  O      363.314     427.712    -491.680
  C      361.570     427.115    -490.126
  O      360.825     428.259    -489.679
  C      361.139     426.823    -491.553
  O      359.740     427.008    -491.743
  C      362.027     427.807    -492.318
  N      359.604     428.106    -496.738
  C      359.297     428.694    -495.529
  N      358.152     429.406    -495.481
  N      360.046     428.584    -494.462
  C      361.175     427.861    -494.664
  C      361.593     427.241    -495.822
  C      360.725     427.319    -496.985
  O      360.896     426.756    -498.057
  N      362.802     426.622    -495.647
  C      363.117     426.856    -494.385
  N      362.135     427.564    -493.737
  O      364.141     422.716    -490.670
  O      366.184     424.244    -490.575
  H      359.288     426.477    -491.063
  H      364.748     422.311    -491.324
  H      358.989     428.216    -497.522
  H      364.022     426.513    -493.897
  H      361.656     428.835    -492.180
  H      361.388     425.784    -491.799
  H      357.549     429.564    -496.269
  H      361.382     426.265    -489.460
  H      357.922     429.858    -494.600
  H      363.257     428.455    -489.762
  H      365.044     426.746    -490.001
  H      363.950     426.396    -488.640
  P      359.530     427.936    -488.774
  C      357.864     429.188    -490.349
  O      358.487     429.119    -489.073
  O      360.041     428.250    -487.284
  O      359.013     426.547    -488.927
  H      359.506     427.746    -486.636
  H      358.059     428.289    -490.949
  H      358.239     430.064    -490.879
  H      356.783     429.289    -490.202
  H      365.794     423.435    -486.706
  H      366.454     424.622    -487.805
  H      366.631     422.919    -488.151

 3  4  5  6  7  8  9  10  11  12  23  26  30  31  33  0
 6-311+G(2d,p)
 ****
 35  36  37  38 0
 6-311+G(2d,p)
 ****
 1  2  13  14  15  16  17  18  19  20  21  22  24  25  27  28  29 0
 3-21G
 ****
 32  34  39  40  41  42  43  44  45  46  47  48  49 0
 3-21G
 ****


