%nproc=1
%NoSave
%Mem=1900MB
#P OB98/GEN NMR

erre ene a

0 1
  C     -173.009       9.281       0.958
  O     -172.479      10.188       0.012
  H     -172.184       8.732       1.418
  H     -173.680       8.565       0.477
  H     -173.544       9.825       1.742
  P     -173.490      11.008      -0.923
  C     -174.196      12.883       0.696
  O     -173.416      12.537      -0.440
  C     -173.944      14.335       1.107
  O     -172.633      14.419       1.728
  C     -173.979      15.320      -0.068
  O     -174.582      16.536       0.382
  C     -172.509      15.531      -0.366
  O     -172.284      16.762      -1.028
  C     -171.872      15.417       1.021
  N     -170.456      15.059       0.925
  C     -169.537      16.050       1.291
  O     -169.932      17.151       1.683
  N     -168.197      15.799       1.143
  C     -167.804      14.679       0.621
  N     -166.465      14.511       0.467
  C     -168.739      13.616       0.196
  C     -170.037      13.870       0.378
  O     -174.872      10.457      -1.039
  O     -172.748      11.039      -2.343
  H     -171.320      16.880      -1.177
  H     -173.023      10.272      -2.880
  H     -168.363      12.703      -0.238
  H     -170.795      13.152       0.084
  H     -171.960      16.363       1.572
  H     -172.147      14.727      -1.020
  H     -174.522      14.933      -0.935
  H     -174.677      14.613       1.875
  H     -165.864      15.277       0.749
  H     -173.911      12.216       1.517
  H     -166.042      13.701       0.035
  H     -175.258      12.735       0.477
  P     -176.179      16.698       0.410
  C     -177.434      15.083       1.950
  O     -176.716      16.311       1.876
  O     -176.894      16.022      -0.713
  O     -176.405      18.285       0.345
  H     -177.250      18.472      -0.107
  H     -177.748      14.914       2.959
  H     -176.801      14.280       1.634
  H     -178.292      15.133       1.313

 6  7  8  9  10  11  12  13  14  15  16  26  30  31  32  33  35 0
 6-311+G(2d,p)
 ****
 37  38 0
 6-311+G(2d,p)
 ****
 1  2  3  4  5  17  18  19  20  21  22  23  24  25 0
 3-21G
 ****
 27  28  29  34  36  39  40  41  42  43  44  45  46 0
 3-21G
 ****


