%nproc=1
%NoSave
%Mem=1900MB
#P OB98/GEN NMR

erre ene a

0 1
  C      512.948     438.024     382.038
  O      513.232     438.277     383.398
  H      513.566     437.189     381.703
  H      513.188     438.904     381.439
  H      511.895     437.758     381.908
  P      512.283     439.335     384.149
  C      510.935     437.548     385.466
  O      510.912     438.566     384.473
  C      509.526     437.011     385.703
  O      508.804     437.877     386.606
  C      508.678     436.906     384.442
  O      508.947     435.709     383.721
  C      507.281     436.876     385.048
  O      507.012     435.567     385.587
  C      507.411     437.900     386.181
  N      503.601     441.001     384.929
  C      503.581     439.655     385.248
  N      502.378     439.046     385.218
  N      504.648     438.968     385.562
  C      505.783     439.704     385.538
  C      505.926     441.041     385.240
  C      504.741     441.795     384.903
  O      504.698     442.990     384.640
  N      507.237     441.440     385.335
  C      507.887     440.338     385.667
  N      507.052     439.259     385.794
  O      511.866     440.351     382.980
  O      512.905     440.056     385.296
  H      506.090     435.579     385.904
  H      511.799     441.251     383.355
  H      502.749     441.480     384.682
  H      508.956     440.276     385.825
  H      506.798     437.640     387.048
  H      506.502     437.088     384.316
  H      501.525     439.507     384.938
  H      508.780     437.794     383.811
  H      502.330     438.068     385.477
  H      509.616     436.030     386.193
  H      511.326     437.966     386.400
  H      511.596     436.741     385.137
  P      508.096     435.441     382.383
  C      509.872     436.414     380.754
  O      508.583     436.556     381.334
  O      506.628     435.929     382.786
  O      508.112     434.033     381.898
  H      505.963     435.494     382.217
  H      510.052     437.227     380.082
  H      509.922     435.490     380.217
  H      510.613     436.419     381.526

 6  7  8  9  10  11  12  13  14  15  26  29  33  34 0
 6-311+G(2d,p)
 ****
 36  38  39  40  41 0
 6-311+G(2d,p)
 ****
 1  2  3  4  5  16  17  18  19  20  21  22  23  24  25 0
 3-21G
 ****
 27  28  30  31  32  35  37  42  43  44  45  46  47 0
 3-21G
 ****
 48  49 0
 3-21G
 ****


