%nproc=1
%NoSave
%Mem=1900MB
#P OB98/GEN NMR

erre ene a

0 1
  C     -108.097     501.259    -139.172
  O     -109.252     501.126    -139.985
  P     -110.676     501.136    -139.249
  C     -111.509     503.226    -140.562
  O     -111.187     502.655    -139.293
  C     -111.557     504.748    -140.464
  O     -110.252     505.262    -140.146
  C     -111.970     505.433    -141.758
  O     -113.366     505.349    -141.953
  C     -111.464     506.854    -141.516
  O     -112.444     507.636    -140.809
  C     -110.207     506.625    -140.641
  N     -108.968     506.875    -141.360
  C     -108.164     507.897    -140.838
  O     -108.530     508.527    -139.838
  N     -106.986     508.205    -141.483
  C     -106.653     507.552    -142.547
  N     -105.476     507.895    -143.144
  C     -107.483     506.490    -143.145
  C     -108.619     506.208    -142.513
  O     -110.296     500.915    -137.712
  O     -111.647     500.113    -139.750
  H     -113.299     507.417    -141.224
  H     -111.036     500.501    -137.225
  H     -107.160     505.978    -144.046
  H     -109.291     505.447    -142.875
  H     -110.225     507.278    -139.757
  H     -111.254     507.384    -142.448
  H     -111.433     504.998    -142.614
  H     -112.246     505.020    -139.645
  H     -104.931     508.639    -142.715
  H     -112.487     502.861    -140.877
  H     -105.112     507.432    -143.969
  H     -110.763     502.907    -141.292
  P     -113.897     505.033    -143.426
  C     -115.990     503.627    -142.968
  O     -114.622     503.606    -143.303
  O     -112.542     504.656    -144.197
  O     -114.660     506.108    -144.122
  H     -112.721     504.538    -145.150
  H     -116.394     502.614    -143.070
  H     -116.543     504.298    -143.620
  H     -116.113     503.948    -141.922
  H     -107.223     501.236    -139.788
  H     -108.060     500.452    -138.470
  H     -108.137     502.189    -138.644

 3  4  5  6  7  8  9  10  11  12  13  21  23  27  28  29  30  32 0
 6-311+G(2d,p)
 ****
 34  35 0
 6-311+G(2d,p)
 ****
 1  2  14  15  16  17  18  19  20  22  24  25  26 0
 3-21G
 ****
 31  33  36  37  38  39  40  41  42  43  44  45  46 0
 3-21G
 ****


