%nproc=1
%NoSave
%Mem=1900MB
#P OB98/GEN NMR

erre ene a

0 1
  C      396.920     484.378     204.932
  O      398.006     483.587     205.367
  H      395.993     483.935     205.312
  H      396.879     484.394     203.837
  H      397.008     485.396     205.315
  P      399.493     484.023     204.940
  C      400.171     481.516     204.855
  O      400.419     482.792     205.428
  C      401.332     480.575     205.158
  O      402.429     480.772     204.244
  C      401.953     480.736     206.546
  O      401.148     480.236     207.601
  C      403.229     479.935     206.359
  O      402.932     478.533     206.399
  C      403.653     480.388     204.935
  N      404.606     481.497     204.948
  C      405.935     481.170     205.269
  O      406.251     480.016     205.522
  N      406.865     482.189     205.320
  C      406.494     483.409     205.091
  N      407.456     484.368     205.166
  C      405.104     483.799     204.778
  C      404.221     482.797     204.706
  O      399.933     485.380     205.392
  O      399.525     483.830     203.351
  H      403.783     478.059     206.302
  H      400.421     484.104     203.035
  H      404.847     484.831     204.629
  H      403.177     483.004     204.500
  H      404.093     479.545     204.380
  H      403.976     480.132     207.131
  H      402.227     481.793     206.731
  H      400.967     479.542     205.010
  H      408.405     484.086     205.394
  H      400.041     481.648     203.779
  H      407.257     485.362     205.086
  H      399.258     481.085     205.274
  P      400.410     481.321     208.537
  C      401.875     481.090     210.691
  O      400.634     480.835     210.048
  O      398.858     481.038     208.255
  O      400.791     482.741     208.275
  H      398.504     481.678     207.606
  H      401.848     480.699     211.687
  H      402.048     482.145     210.727
  H      402.664     480.617     210.144

 6  7  8  9  10  11  12  13  14  15  16  26  30  31  32  33  35 0
 6-311+G(2d,p)
 ****
 37  38 0
 6-311+G(2d,p)
 ****
 1  2  3  4  5  17  18  19  20  21  22  23  24  25 0
 3-21G
 ****
 27  28  29  34  36  39  40  41  42  43  44  45  46 0
 3-21G
 ****


