%nproc=1
%NoSave
%Mem=1900MB
#P OB98/GEN NMR

erre ene a

0 1
  C       22.496     -61.585      38.569
  O       21.594     -62.318      37.752
  P       21.194     -63.804      38.207
  C       20.353     -64.863      40.419
  O       21.032     -63.776      39.805
  C       21.158     -65.426      41.590
  O       22.200     -66.297      41.072
  C       21.844     -64.367      42.458
  O       21.864     -64.866      43.801
  C       23.261     -64.343      41.917
  O       24.187     -63.798      42.851
  C       23.457     -65.824      41.603
  N       28.520     -66.095      40.948
  C       27.766     -65.885      42.049
  N       26.422     -65.828      42.144
  C       25.853     -66.011      40.940
  C       26.493     -66.201      39.727
  C       27.897     -66.245      39.756
  N       28.666     -66.469      38.639
  N       25.571     -66.323      38.708
  C       24.397     -66.209      39.294
  N       24.518     -66.044      40.645
  O       22.555     -64.616      37.983
  O       20.064     -64.417      37.454
  H       24.186     -64.362      43.648
  H       22.448     -65.247      37.244
  H       28.316     -65.752      42.977
  H       23.441     -66.237      38.790
  H       23.685     -66.411      42.502
  H       23.299     -63.735      41.007
  H       21.364     -63.383      42.426
  H       20.491     -66.049      42.198
  H       20.215     -65.654      39.677
  H       29.654     -66.623      38.761
  H       28.210     -66.769      37.783
  H       19.368     -64.532      40.762
  P       21.950     -63.782      44.979
  C       20.463     -61.774      45.674
  O       20.875     -62.647      44.639
  O       23.358     -63.065      44.719
  O       21.874     -64.365      46.352
  H       23.718     -62.723      45.559
  H       20.253     -60.792      45.244
  H       21.229     -61.667      46.447
  H       19.548     -62.166      46.129
  H       22.664     -60.620      38.138
  H       23.425     -62.112      38.637
  H       22.079     -61.471      39.548

 3  4  5  6  7  8  9  10  11  12  22  25  29  30  31  32 0
 6-311+G(2d,p)
 ****
 33  36  37 0
 6-311+G(2d,p)
 ****
 1  2  13  14  15  16  17  18  19  20  21  23  24  26 0
 3-21G
 ****
 27  28  34  35  38  39  40  41  42  43  44  45  46  47  48 0
 3-21G
 ****


