%nproc=1
%NoSave
%Mem=1900MB
#P OB98/GEN NMR

erre ene a

0 1
  C      -70.982    -569.794     189.496
  O      -72.077    -570.190     190.292
  H      -70.237    -570.592     189.507
  H      -70.531    -568.886     189.904
  H      -71.287    -569.619     188.460
  P      -73.442    -569.359     190.193
  C      -75.326    -571.124     190.159
  O      -74.571    -570.215     190.946
  C      -75.808    -572.309     191.008
  O      -74.651    -573.030     191.508
  C      -76.604    -571.839     192.229
  O      -77.556    -572.808     192.657
  C      -75.530    -571.698     193.298
  O      -76.043    -571.776     194.626
  C      -74.592    -572.849     192.932
  N      -71.286    -572.606     196.806
  C      -72.665    -572.669     196.842
  N      -73.238    -572.678     198.068
  N      -73.414    -572.706     195.768
  C      -72.711    -572.624     194.612
  C      -71.348    -572.530     194.453
  C      -70.525    -572.527     195.649
  O      -69.301    -572.443     195.673
  N      -71.001    -572.454     193.128
  C      -72.153    -572.497     192.486
  N      -73.218    -572.623     193.343
  O      -73.864    -569.511     188.654
  O      -73.356    -567.918     190.598
  H      -76.470    -572.646     194.727
  H      -74.463    -568.791     188.394
  H      -70.754    -572.610     197.661
  H      -72.268    -572.456     191.412
  H      -74.923    -573.783     193.402
  H      -75.063    -570.719     193.187
  H      -72.711    -572.453     198.896
  H      -77.114    -570.892     192.062
  H      -74.226    -572.410     198.105
  H      -76.373    -573.009     190.387
  H      -74.676    -571.465     189.354
  H      -76.173    -570.614     189.695
  P      -79.114    -572.441     192.575
  C      -79.986    -574.653     191.403
  O      -79.984    -573.779     192.513
  O      -79.280    -571.809     191.118
  O      -79.581    -571.509     193.648
  H      -79.531    -570.870     191.181
  H      -80.643    -575.475     191.597
  H      -78.995    -575.021     191.237
  H      -80.321    -574.126     190.534

 6  7  8  9  10  11  12  13  14  15  26  29  33  34 0
 6-311+G(2d,p)
 ****
 36  38  39  40  41 0
 6-311+G(2d,p)
 ****
 1  2  3  4  5  16  17  18  19  20  21  22  23  24  25 0
 3-21G
 ****
 27  28  30  31  32  35  37  42  43  44  45  46  47 0
 3-21G
 ****
 48  49 0
 3-21G
 ****


