%nproc=1
%NoSave
%Mem=1900MB
#P OB98/GEN NMR

erre ene a

0 1
  C     -563.267    -302.797    -328.438
  O     -562.075    -303.483    -328.106
  P     -560.879    -303.602    -329.178
  C     -560.377    -306.134    -329.284
  O     -560.000    -304.872    -328.730
  C     -559.506    -307.235    -328.700
  O     -558.097    -306.895    -328.774
  C     -559.749    -307.514    -327.223
  O     -561.006    -308.036    -326.858
  C     -558.527    -308.335    -326.862
  O     -558.689    -309.703    -327.246
  C     -557.432    -307.655    -327.733
  N     -556.541    -306.821    -326.937
  C     -555.199    -307.146    -326.971
  O     -554.741    -308.084    -327.631
  N     -554.366    -306.373    -326.194
  C     -554.753    -305.368    -325.365
  O     -553.956    -304.739    -324.667
  C     -556.193    -305.072    -325.367
  C     -557.015    -305.792    -326.126
  O     -560.100    -302.349    -329.406
  O     -561.614    -304.156    -330.488
  H     -559.461    -310.052    -326.766
  H     -562.071    -305.018    -330.381
  H     -553.380    -306.613    -326.206
  H     -556.531    -304.256    -324.721
  H     -558.089    -305.593    -326.139
  H     -556.824    -308.416    -328.246
  H     -558.323    -308.322    -325.790
  H     -559.666    -306.557    -326.688
  H     -559.645    -308.142    -329.304
  H     -560.233    -306.096    -330.360
  H     -561.438    -306.319    -329.098
  P     -561.972    -307.325    -325.782
  C     -562.280    -308.534    -323.509
  O     -562.629    -308.468    -324.875
  O     -562.876    -306.245    -326.292
  O     -560.911    -306.684    -324.770
  H     -561.293    -305.860    -324.394
  H     -562.784    -309.391    -323.053
  H     -562.612    -307.628    -322.991
  H     -561.203    -308.677    -323.390
  H     -563.938    -302.824    -327.605
  H     -563.727    -303.268    -329.282
  H     -563.038    -301.780    -328.679

 3  4  5  6  7  8  9  10  11  12  13  23  28  29  30  31  32 0
 6-311+G(2d,p)
 ****
 33  34 0
 6-311+G(2d,p)
 ****
 1  2  14  15  16  17  18  19  20  21  22  24  25  26  27 0
 3-21G
 ****
 35  36  37  38  39  40  41  42  43  44  45 0
 3-21G
 ****


