%nproc=1
%NoSave
%Mem=1900MB
#P OB98/GEN NMR

erre ene a

0 1
  C     -616.685     168.225     501.836
  O     -616.068     167.049     502.322
  H     -617.656     167.969     501.414
  H     -616.068     168.674     501.054
  H     -616.832     168.945     502.649
  P     -614.735     167.214     503.196
  C     -612.811     165.501     502.858
  O     -614.113     165.742     503.369
  C     -612.591     164.006     502.669
  O     -612.928     163.330     503.920
  C     -613.462     163.375     501.567
  O     -612.685     162.346     500.917
  C     -614.596     162.730     502.333
  O     -615.234     161.674     501.649
  C     -613.856     162.268     503.606
  N     -614.767     162.020     504.718
  C     -615.178     160.693     504.921
  O     -614.770     159.731     504.291
  N     -616.112     160.521     505.915
  C     -616.671     161.505     506.682
  O     -617.512     161.281     507.549
  C     -616.197     162.870     506.413
  C     -615.290     163.064     505.455
  O     -615.304     167.546     504.655
  O     -613.772     168.242     502.710
  H     -615.411     168.515     504.771
  H     -614.600     160.927     501.592
  H     -616.422     159.578     506.075
  H     -616.630     163.680     506.992
  H     -614.935     164.059     505.229
  H     -613.275     161.368     503.391
  H     -615.349     163.493     502.579
  H     -613.811     164.088     500.816
  H     -611.521     163.817     502.485
  H     -612.063     165.893     503.563
  H     -612.696     166.028     501.899
  P     -612.301     162.580     499.378
  C     -612.516     160.291     498.128
  O     -611.708     161.181     498.872
  O     -611.028     163.536     499.524
  O     -613.416     163.143     498.572
  H     -610.477     163.328     500.302
  H     -611.950     159.417     497.881
  H     -612.841     160.771     497.229
  H     -613.369     160.011     498.711

 6  7  8  9  10  11  12  13  14  15  16  27  31  32  33  34  35 0
 6-311+G(2d,p)
 ****
 36  37 0
 6-311+G(2d,p)
 ****
 1  2  3  4  5  17  18  19  20  21  22  23  24  25 0
 3-21G
 ****
 26  28  29  30  38  39  40  41  42  43  44  45 0
 3-21G
 ****


