%nproc=1
%NoSave
%Mem=1900MB
#P OB98/GEN NMR

erre ene a

0 1
  C      587.119     -56.428     543.395
  O      587.666     -55.419     542.560
  P      587.701     -53.920     543.148
  C      586.405     -53.141     541.012
  O      587.505     -52.945     541.886
  C      585.930     -51.794     540.474
  O      585.615     -50.902     541.559
  C      586.956     -51.061     539.614
  O      586.937     -51.572     538.290
  C      586.484     -49.620     539.731
  O      585.382     -49.361     538.828
  C      586.021     -49.551     541.194
  N      588.778     -45.538     542.547
  C      587.964     -45.723     541.446
  N      587.835     -44.675     540.612
  N      587.328     -46.836     541.191
  C      587.562     -47.811     542.107
  C      588.369     -47.755     543.228
  C      589.014     -46.492     543.528
  O      589.670     -46.244     544.540
  N      588.372     -48.951     543.903
  C      587.560     -49.716     543.205
  N      587.021     -49.066     542.118
  O      589.230     -53.730     543.560
  O      586.754     -53.663     544.277
  H      585.721     -49.323     537.914
  H      589.345     -53.876     544.519
  H      589.224     -44.648     542.707
  H      587.309     -50.736     543.459
  H      585.133     -48.908     541.315
  H      587.269     -48.904     539.472
  H      588.307     -43.792     540.729
  H      587.958     -51.157     540.053
  H      587.240     -44.792     539.798
  H      585.006     -51.959     539.908
  H      585.591     -53.620     541.559
  H      586.714     -53.793     540.187
  P      588.346     -51.915     537.605
  C      587.624     -51.317     535.179
  O      588.050     -52.318     536.083
  O      588.769     -53.301     538.299
  O      589.398     -50.871     537.798
  H      589.732     -53.322     538.433
  H      587.973     -51.582     534.179
  H      588.037     -50.332     535.441
  H      586.538     -51.264     535.178
  H      587.156     -57.369     542.888
  H      586.103     -56.187     543.627
  H      587.686     -56.488     544.300

 3  4  5  6  7  8  9  10  11  12  23  26  30  31 0
 6-311+G(2d,p)
 ****
 33  35  36  37  38 0
 6-311+G(2d,p)
 ****
 1  2  13  14  15  16  17  18  19  20  21  22  24  25 0
 3-21G
 ****
 27  28  29  32  34  39  40  41  42  43  44  45  46  47  48  49 0
 3-21G
 ****


