%nproc=1
%NoSave
%Mem=1900MB
#P OB98/GEN NMR

erre ene a

0 1
  C      -90.056    -472.001    -330.315
  O      -91.022    -471.462    -329.427
  H      -90.509    -472.827    -330.865
  H      -89.195    -472.374    -329.752
  H      -89.734    -471.236    -331.027
  P      -90.543    -470.248    -328.493
  C      -91.860    -471.223    -326.481
  O      -91.694    -470.125    -327.376
  C      -92.540    -470.758    -325.192
  O      -91.681    -469.850    -324.470
  C      -93.859    -470.024    -325.416
  O      -94.919    -470.958    -325.566
  C      -93.981    -469.265    -324.101
  O      -94.493    -470.138    -323.073
  C      -92.525    -468.883    -323.786
  N      -92.296    -463.952    -322.389
  C      -92.915    -465.003    -321.832
  N      -92.984    -466.277    -322.283
  C      -92.303    -466.410    -323.441
  C      -91.619    -465.413    -324.126
  C      -91.623    -464.133    -323.552
  N      -90.989    -463.045    -324.129
  N      -91.045    -465.918    -325.280
  C      -91.333    -467.207    -325.251
  N      -92.119    -467.549    -324.184
  O      -90.175    -468.985    -329.207
  O      -89.345    -470.941    -327.686
  H      -94.622    -469.587    -322.277
  H      -89.584    -471.851    -327.436
  H      -93.430    -464.814    -320.896
  H      -90.969    -467.939    -325.978
  H      -92.304    -468.969    -322.709
  H      -94.671    -468.419    -324.166
  H      -93.795    -469.312    -326.234
  H      -92.684    -471.640    -324.555
  H      -90.879    -471.666    -326.252
  H      -91.204    -462.139    -323.757
  H      -90.602    -463.166    -325.061
  H      -92.464    -471.977    -326.994
  P      -95.890    -470.896    -326.844
  C      -98.088    -471.389    -325.615
  O      -97.101    -471.896    -326.496
  O      -95.213    -471.124    -328.154
  O      -96.581    -469.459    -326.744
  H      -96.976    -469.218    -327.611
  H      -98.840    -472.134    -325.455
  H      -98.535    -470.517    -326.044
  H      -97.634    -471.133    -324.680

 6  7  8  9  10  11  12  13  14  15  25  28  32  33  34  35 0
 6-311+G(2d,p)
 ****
 36  39  40 0
 6-311+G(2d,p)
 ****
 1  2  3  4  5  16  17  18  19  20  21  22  23  24 0
 3-21G
 ****
 26  27  29  30  31  37  38  41  42  43  44  45  46  47 0
 3-21G
 ****
 48 0
 3-21G
 ****


