%nproc=1
%NoSave
%Mem=1900MB
#P OB98/GEN NMR

erre ene a

0 1
  C     -236.231      29.768     -48.834
  O     -235.529      29.058     -47.808
  P     -235.872      29.436     -46.284
  C     -238.183      28.240     -46.011
  O     -236.793      28.239     -45.729
  C     -238.867      27.011     -45.395
  O     -238.122      25.804     -45.755
  C     -238.977      27.045     -43.866
  O     -240.241      26.446     -43.525
  C     -237.832      26.161     -43.414
  O     -238.037      25.652     -42.102
  C     -237.843      25.102     -44.527
  N     -236.584      24.357     -44.604
  C     -236.663      22.969     -44.486
  O     -237.712      22.378     -44.244
  N     -235.480      22.296     -44.614
  C     -234.240      22.858     -44.756
  O     -233.214      22.205     -44.864
  C     -234.209      24.336     -44.755
  C     -235.366      25.003     -44.682
  O     -236.881      30.661     -46.478
  O     -234.655      29.739     -45.470
  H     -237.475      30.553     -47.245
  H     -238.922      25.229     -42.059
  H     -235.516      21.287     -44.561
  H     -233.241      24.819     -44.808
  H     -235.373      26.086     -44.660
  H     -238.656      24.386     -44.362
  H     -236.891      26.726     -43.425
  H     -238.936      28.064     -43.455
  H     -239.866      26.918     -45.839
  H     -238.343      28.226     -47.094
  H     -238.631      29.170     -45.632
  P     -241.470      27.420     -43.157
  C     -242.032      27.430     -45.719
  O     -242.498      27.369     -44.386
  O     -240.758      28.849     -43.338
  O     -242.040      27.226     -41.786
  H     -240.254      28.921     -44.165
  H     -242.844      27.138     -46.389
  H     -241.191      26.744     -45.875
  H     -241.718      28.452     -45.955
  H     -235.909      29.420     -49.793
  H     -236.027      30.815     -48.747
  H     -237.282      29.600     -48.729

 3  4  5  6  7  8  9  10  11  12  13  24  28  29  30  31  32 0
 6-311+G(2d,p)
 ****
 33  34 0
 6-311+G(2d,p)
 ****
 1  2  14  15  16  17  18  19  20  21  22  23  25  26  27 0
 3-21G
 ****
 35  36  37  38  39  40  41  42  43  44  45 0
 3-21G
 ****


