%nproc=1
%NoSave
%Mem=1900MB
#P OB98/GEN NMR

erre ene a

0 1
  C       93.839    -272.011    -898.140
  O       95.133    -271.475    -897.940
  H       93.815    -273.061    -897.840
  H       93.131    -271.453    -897.530
  H       93.553    -271.929    -899.190
  P       96.339    -272.156    -898.750
  C       96.514    -274.155    -897.110
  O       97.158    -273.040    -897.680
  C       97.556    -275.039    -896.410
  O       98.520    -275.541    -897.360
  C       98.367    -274.302    -895.320
  O       97.671    -274.211    -894.110
  C       99.557    -275.247    -895.220
  O       99.202    -276.404    -894.440
  C       99.806    -275.636    -896.690
  N      104.774    -274.829    -897.620
  C      104.120    -275.744    -896.880
  N      102.800    -275.898    -896.670
  C      102.116    -274.950    -897.330
  C      102.622    -273.935    -898.120
  C      104.042    -273.897    -898.260
  N      104.697    -272.942    -899.010
  N      101.620    -273.135    -898.610
  C      100.504    -273.683    -898.150
  N      100.761    -274.770    -897.360
  O       97.319    -270.933    -899.050
  O       95.946    -272.893    -900.000
  H      100.009    -276.924    -894.320
  H       97.919    -271.157    -899.800
  H      104.774    -276.483    -896.380
  H       99.502    -273.319    -898.350
  H      100.155    -276.673    -896.800
  H      100.418    -274.781    -894.730
  H       98.707    -273.325    -895.680
  H       97.022    -275.901    -895.960
  H       96.021    -274.744    -897.900
  H      105.691    -272.893    -898.890
  H      104.145    -272.165    -899.350
  H       95.752    -273.817    -896.390
  P       97.804    -272.830    -893.280
  C      100.373    -272.520    -893.150
  O       99.182    -272.911    -892.470
  O       96.674    -272.975    -892.140
  O       97.592    -271.600    -894.120
  H       96.353    -272.102    -891.850
  H      101.210    -272.625    -892.492
  H      100.288    -271.499    -893.460
  H      100.514    -273.143    -894.009

 6  7  8  9  10  11  12  13  14  15  25  28  32  33  34  35 0
 6-311+G(2d,p)
 ****
 36  39  40 0
 6-311+G(2d,p)
 ****
 1  2  3  4  5  16  17  18  19  20  21  22  23  24 0
 3-21G
 ****
 26  27  29  30  31  37  38  41  42  43  44  45  46  47 0
 3-21G
 ****
 48 0
 3-21G
 ****


