%nproc=1
%NoSave
%Mem=1900MB
#P OB98/GEN NMR

erre ene a

0 1
  C       -2.928      19.976      68.279
  O       -2.839      20.946      67.255
  H       -2.053      19.324      68.222
  H       -3.829      19.371      68.151
  H       -2.944      20.464      69.257
  P       -4.093      21.938      67.097
  C       -6.613      21.269      67.176
  O       -5.306      20.952      66.722
  C       -7.461      20.005      67.249
  O       -6.773      18.972      67.991
  C       -8.802      20.181      67.956
  O       -9.782      20.814      67.153
  C       -9.147      18.728      68.228
  O       -9.577      18.097      67.007
  C       -7.777      18.183      68.687
  N       -7.584      18.268      70.137
  C       -8.277      17.336      70.918
  O       -9.008      16.497      70.395
  N       -8.153      17.398      72.285
  C       -7.388      18.294      72.826
  N       -7.307      18.307      74.184
  C       -6.631      19.286      72.042
  C       -6.772      19.217      70.721
  O       -3.805      22.682      65.711
  O       -4.356      22.850      68.248
  H       -9.806      17.178      67.235
  H       -4.594      23.214      65.443
  H       -6.017      20.024      72.538
  H       -6.245      19.913      70.078
  H       -7.646      17.139      68.378
  H       -9.952      18.602      68.950
  H       -8.686      20.702      68.913
  H       -7.598      19.635      66.225
  H       -7.885      17.653      74.696
  H       -7.058      21.981      66.473
  H       -6.863      19.054      74.701
  H       -6.565      21.731      68.167
  P      -11.042      21.467      67.906
  C      -12.706      20.555      69.689
  O      -11.847      20.264      68.593
  O      -11.995      21.911      66.703
  O      -10.709      22.612      68.811
  H      -12.480      22.730      66.926
  H      -13.166      19.652      70.031
  H      -13.463      21.244      69.376
  H      -12.136      20.989      70.484

 6  7  8  9  10  11  12  13  14  15  16  26  30  31  32  33  35 0
 6-311+G(2d,p)
 ****
 37  38 0
 6-311+G(2d,p)
 ****
 1  2  3  4  5  17  18  19  20  21  22  23  24  25 0
 3-21G
 ****
 27  28  29  34  36  39  40  41  42  43  44  45  46 0
 3-21G
 ****


