%nproc=1
%NoSave
%Mem=1900MB
#P OB98/GEN NMR

erre ene a

0 1
  C      -35.353     943.029     389.766
  O      -35.479     941.633     389.928
  P      -35.685     940.981     391.376
  C      -33.263     940.105     391.273
  O      -34.213     940.859     392.021
  C      -32.113     939.663     392.179
  O      -31.586     940.765     392.945
  C      -32.515     938.625     393.217
  O      -32.899     937.347     392.744
  C      -31.314     938.683     394.151
  O      -30.222     937.914     393.674
  C      -30.980     940.194     394.128
  N      -31.393     940.888     395.355
  C      -30.393     941.107     396.299
  O      -29.223     940.743     396.141
  N      -30.786     941.714     397.457
  C      -32.067     942.081     397.773
  O      -32.366     942.569     398.849
  C      -33.091     941.802     396.742
  C      -32.715     941.228     395.600
  O      -36.490     939.731     391.415
  O      -36.315     942.202     392.231
  H      -30.545     936.997     393.529
  H      -35.755     942.986     392.280
  H      -30.091     941.877     398.163
  H      -34.110     942.093     396.964
  H      -33.442     941.007     394.834
  H      -29.892     940.342     394.008
  H      -31.560     938.293     395.150
  H      -33.373     939.013     393.775
  H      -31.294     939.297     391.531
  H      -32.857     940.728     390.468
  H      -33.752     939.248     390.809
  P      -34.208     936.579     393.282
  C      -33.105     934.928     394.962
  O      -33.914     936.076     394.780
  O      -34.836     935.619     392.343
  O      -35.218     937.803     393.546
  H      -36.133     937.500     393.386
  H      -33.057     934.712     396.026
  H      -32.100     935.116     394.586
  H      -33.540     934.068     394.449
  H      -35.224     943.257     388.729
  H      -34.504     943.377     390.316
  H      -36.236     943.511     390.130

 3  4  5  6  7  8  9  10  11  12  13  23  28  29  30  31  32 0
 6-311+G(2d,p)
 ****
 33  34 0
 6-311+G(2d,p)
 ****
 1  2  14  15  16  17  18  19  20  21  22  24  25  26  27 0
 3-21G
 ****
 35  36  37  38  39  40  41  42  43  44  45 0
 3-21G
 ****


