%nproc=1
%NoSave
%Mem=1900MB
#P OB98/GEN NMR

erre ene a

0 1
  C      796.154     598.935     344.134
  O      796.241     600.166     343.433
  H      797.159     598.534     344.254
  H      795.563     598.213     343.558
  H      795.711     599.094     345.110
  P      794.848     600.864     343.047
  C      795.873     601.387     340.691
  O      794.817     600.779     341.431
  C      795.824     600.931     339.241
  O      796.134     599.521     339.143
  C      794.464     601.092     338.569
  O      794.166     602.420     338.191
  C      794.652     600.165     337.369
  O      795.487     600.824     336.397
  C      795.375     598.967     338.031
  N      794.458     597.931     338.504
  C      794.328     596.789     337.698
  O      794.945     596.692     336.642
  N      793.439     595.807     338.078
  C      792.770     595.931     339.196
  N      791.911     594.925     339.523
  C      792.881     597.105     340.085
  C      793.736     598.059     339.670
  O      795.121     602.420     343.310
  O      793.639     600.319     343.716
  H      796.314     601.075     336.863
  H      794.369     602.963     342.961
  H      792.292     597.181     340.987
  H      793.881     598.956     340.277
  H      796.079     598.507     337.331
  H      793.711     599.914     336.870
  H      793.664     600.680     339.208
  H      796.603     601.488     338.690
  H      791.804     594.158     338.860
  H      796.819     601.098     341.145
  H      791.244     594.997     340.281
  H      795.771     602.472     340.740
  P      792.662     602.754     337.757
  C      793.532     604.957     336.636
  O      792.748     603.769     336.511
  O      792.141     603.709     338.959
  O      791.762     601.565     337.564
  H      791.187     603.560     339.137
  H      793.482     605.515     335.724
  H      794.549     604.693     336.837
  H      793.152     605.552     337.440

 6  7  8  9  10  11  12  13  14  15  16  26  30  31  32  33  35 0
 6-311+G(2d,p)
 ****
 37  38 0
 6-311+G(2d,p)
 ****
 1  2  3  4  5  17  18  19  20  21  22  23  24  25 0
 3-21G
 ****
 27  28  29  34  36  39  40  41  42  43  44  45  46 0
 3-21G
 ****


