%nproc=1
%NoSave
%Mem=1900MB
#P OB98/GEN NMR

erre ene a

0 1
  C     -109.941    -244.516    -137.973
  O     -110.186    -244.765    -136.599
  P     -110.334    -246.284    -136.112
  C     -111.917    -246.084    -134.060
  O     -110.589    -246.263    -134.528
  C     -111.924    -245.230    -132.790
  O     -111.477    -246.041    -131.660
  C     -111.007    -244.000    -132.860
  O     -111.628    -242.954    -132.096
  C     -109.760    -244.480    -132.145
  O     -108.935    -243.420    -131.683
  C     -110.393    -245.327    -131.035
  N     -109.442    -246.236    -130.399
  C     -108.431    -245.669    -129.629
  O     -108.292    -244.459    -129.457
  N     -107.523    -246.548    -129.100
  C     -107.474    -247.890    -129.333
  O     -106.565    -248.604    -128.922
  C     -108.565    -248.434    -130.152
  C     -109.486    -247.597    -130.640
  O     -108.846    -246.857    -136.248
  O     -111.318    -247.092    -136.886
  H     -108.205    -243.816    -131.176
  H     -108.756    -247.380    -137.067
  H     -106.790    -246.155    -128.529
  H     -108.567    -249.501    -130.340
  H     -110.290    -247.967    -131.263
  H     -110.837    -244.674    -130.270
  H     -109.163    -245.097    -132.825
  H     -110.807    -243.660    -133.880
  H     -112.957    -244.923    -132.579
  H     -112.354    -247.059    -133.837
  H     -112.525    -245.617    -134.842
  P     -111.930    -241.560    -132.838
  C     -109.784    -240.319    -132.002
  O     -111.194    -240.420    -131.988
  O     -113.480    -241.365    -132.483
  O     -111.649    -241.587    -134.305
  H     -113.683    -241.579    -131.557
  H     -109.369    -240.599    -132.975
  H     -109.367    -240.974    -131.233
  H     -109.501    -239.287    -131.781
  H     -109.868    -243.461    -138.137
  H     -110.746    -244.913    -138.556
  H     -109.025    -244.986    -138.263

 3  4  5  6  7  8  9  10  11  12  13  23  28  29  30  31  32 0
 6-311+G(2d,p)
 ****
 33  34 0
 6-311+G(2d,p)
 ****
 1  2  14  15  16  17  18  19  20  21  22  24  25  26 0
 3-21G
 ****
 27  35  36  37  38  39  40  41  42  43  44  45 0
 3-21G
 ****


