%nproc=1
%NoSave
%Mem=1900MB
#P OB98/GEN NMR

erre ene a

0 1
  C       55.424    -375.609    -253.916
  O       55.859    -376.773    -253.206
  P       56.484    -376.517    -251.747
  C       59.000    -376.434    -252.407
  O       57.864    -375.714    -251.936
  C       60.237    -375.537    -252.418
  O       60.057    -374.354    -253.219
  C       60.638    -375.040    -251.033
  O       61.340    -376.059    -250.343
  C       61.510    -373.840    -251.371
  O       62.866    -374.240    -251.667
  C       60.837    -373.278    -252.638
  N       60.671    -368.223    -252.238
  C       61.758    -369.069    -252.320
  N       62.975    -368.488    -252.331
  N       61.658    -370.372    -252.397
  C       60.385    -370.821    -252.383
  C       59.225    -370.075    -252.328
  C       59.343    -368.638    -252.239
  O       58.416    -367.847    -252.185
  N       58.110    -370.885    -252.393
  C       58.602    -372.111    -252.365
  N       59.976    -372.126    -252.419
  O       56.947    -377.973    -251.284
  O       55.524    -375.908    -250.786
  H       63.405    -373.443    -251.828
  H       56.373    -378.293    -250.563
  H       60.804    -367.233    -252.167
  H       58.009    -373.011    -252.321
  H       61.579    -372.968    -253.385
  H       61.571    -373.134    -250.544
  H       63.127    -367.486    -252.277
  H       59.754    -374.718    -250.478
  H       63.790    -369.091    -252.401
  H       61.063    -376.121    -252.858
  H       58.806    -376.809    -253.417
  H       59.152    -377.308    -251.770
  P       60.682    -376.655    -249.004
  C       61.001    -374.372    -247.810
  O       60.116    -375.415    -248.158
  O       61.941    -377.159    -248.166
  O       59.707    -377.762    -249.238
  H       61.756    -378.039    -247.786
  H       60.432    -373.440    -247.731
  H       61.789    -374.248    -248.551
  H       61.458    -374.596    -246.836
  H       55.029    -375.898    -254.867
  H       56.253    -374.948    -254.060
  H       54.665    -375.110    -253.351

 3  4  5  6  7  8  9  10  11  12  23  26  30  31 0
 6-311+G(2d,p)
 ****
 33  35  36  37  38 0
 6-311+G(2d,p)
 ****
 1  2  13  14  15  16  17  18  19  20  21  22  24  25 0
 3-21G
 ****
 27  28  29  32  34  39  40  41  42  43  44  45  46  47  48  49 0
 3-21G
 ****


