%nproc=1
%NoSave
%Mem=1900MB
#P OB98/GEN NMR

erre ene a

0 1
  C     -149.387     340.099     -61.359
  O     -149.486     338.677     -61.378
  P     -148.696     337.725     -62.389
  C     -150.197     338.184     -64.490
  O     -149.714     337.254     -63.529
  C     -151.544     337.767     -65.110
  O     -151.401     336.471     -65.745
  C     -152.607     337.606     -64.023
  O     -153.315     338.731     -63.543
  C     -153.508     336.483     -64.527
  O     -154.647     336.968     -65.242
  C     -152.586     335.691     -65.466
  N     -153.418     330.645     -65.471
  C     -154.104     331.638     -66.145
  N     -155.170     331.258     -66.864
  N     -153.771     332.904     -66.089
  C     -152.733     333.162     -65.261
  C     -151.992     332.262     -64.527
  C     -152.329     330.856     -64.635
  O     -151.753     329.932     -64.074
  N     -151.032     332.896     -63.776
  C     -151.202     334.170     -64.034
  N     -152.223     334.388     -64.940
  O     -147.854     336.672     -61.754
  O     -147.708     338.746     -63.158
  H     -155.267     337.343     -64.592
  H     -146.893     338.240     -63.370
  H     -153.700     329.678     -65.569
  H     -150.621     334.974     -63.607
  H     -153.071     335.509     -66.435
  H     -153.892     335.889     -63.689
  H     -155.550     330.325     -66.853
  H     -152.103     337.194     -63.141
  H     -155.799     332.008     -67.180
  H     -151.841     338.462     -65.900
  H     -149.430     338.269     -65.266
  H     -150.295     339.174     -64.033
  P     -152.992     339.552     -62.202
  C     -154.200     337.926     -60.628
  O     -154.153     339.247     -61.145
  O     -153.276     341.074     -62.604
  O     -151.603     339.385     -61.679
  H     -152.869     341.675     -61.953
  H     -155.182     337.753     -60.180
  H     -153.426     337.807     -59.862
  H     -154.039     337.187     -61.425
  H     -150.017     340.490     -60.588
  H     -149.697     340.491     -62.305
  H     -148.373     340.383     -61.170

 3  4  5  6  7  8  9  10  11  12  23  26  30  31 0
 6-311+G(2d,p)
 ****
 33  35  36  37  38 0
 6-311+G(2d,p)
 ****
 1  2  13  14  15  16  17  18  19  20  21  22  24  25 0
 3-21G
 ****
 27  28  29  32  34  39  40  41  42  43  44  45  46  47  48  49 0
 3-21G
 ****


