%nproc=1
%NoSave
%Mem=1900MB
#P OB98/GEN NMR

erre ene a

0 1
  C       51.424       5.676      38.923
  O       50.995       5.946      37.604
  H       52.124       4.837      38.899
  H       50.572       5.404      39.550
  H       51.931       6.549      39.339
  P       49.910       7.112      37.419
  C       47.913       5.460      37.254
  O       48.517       6.532      37.963
  C       46.396       5.614      37.287
  O       45.936       5.652      38.657
  C       45.889       6.901      36.653
  O       45.867       6.831      35.239
  C       44.499       6.992      37.260
  O       43.551       6.201      36.525
  C       44.717       6.420      38.678
  N       44.745       7.467      39.693
  C       43.505       7.944      40.104
  O       42.439       7.527      39.652
  N       43.527       8.952      41.029
  C       44.645       9.541      41.542
  O       44.597      10.490      42.314
  C       45.929       8.985      41.083
  C       45.921       7.996      40.186
  O       49.707       7.169      35.833
  O       50.301       8.435      37.986
  H       50.187       7.933      35.464
  H       42.677       6.385      36.922
  H       42.638       9.318      41.330
  H       46.837       9.426      41.476
  H       46.856       7.585      39.817
  H       43.910       5.723      38.935
  H       44.126       8.016      37.256
  H       46.482       7.755      37.000
  H       45.947       4.738      36.799
  H       48.186       4.510      37.726
  H       48.283       5.460      36.224
  P       46.335       8.116      34.401
  C       43.971       9.245      34.595
  O       45.364       9.318      34.832
  O       45.843       7.724      32.932
  O       47.790       8.413      34.521
  H       45.007       7.227      32.931
  H       43.501      10.138      34.952
  H       43.566       8.399      35.109
  H       43.793       9.143      33.545

 6  7  8  9  10  11  12  13  14  15  16  27  31  32  33  34  35 0
 6-311+G(2d,p)
 ****
 36  37 0
 6-311+G(2d,p)
 ****
 1  2  3  4  5  17  18  19  20  21  22  23  24  25 0
 3-21G
 ****
 26  28  29  30  38  39  40  41  42  43  44  45 0
 3-21G
 ****


