%nproc=1
%NoSave
%Mem=1900MB
#P OB98/GEN NMR

erre ene a

0 1
  C      640.325     -63.964    -364.221
  O      640.417     -65.399    -364.305
  P      641.112     -66.213    -363.102
  C      639.084     -66.143    -361.452
  O      640.427     -65.771    -361.723
  C      639.052     -67.327    -360.478
  O      639.789     -67.018    -359.273
  C      637.657     -67.711    -360.001
  O      636.934     -68.433    -360.990
  C      637.976     -68.531    -358.763
  O      638.306     -69.889    -359.114
  C      639.216     -67.803    -358.208
  N      638.904     -66.973    -357.041
  C      638.410     -67.639    -355.925
  O      638.178     -68.850    -355.907
  N      638.149     -66.855    -354.833
  C      638.271     -65.495    -354.769
  O      638.006     -64.851    -353.766
  C      638.719     -64.842    -356.008
  C      639.005     -65.599    -357.070
  O      642.544     -65.505    -363.004
  O      641.267     -67.681    -363.319
  H      637.712     -70.137    -359.845
  H      643.201     -66.134    -362.661
  H      637.817     -67.318    -353.999
  H      638.810     -63.760    -356.008
  H      639.340     -65.129    -357.988
  H      639.987     -68.527    -357.921
  H      637.140     -68.578    -358.060
  H      637.104     -66.813    -359.701
  H      639.541     -68.182    -360.962
  H      638.592     -66.430    -362.382
  H      638.554     -65.279    -361.027
  P      635.347     -68.191    -361.047
  C      635.633     -66.376    -362.904
  O      635.171     -66.704    -361.614
  O      635.004     -68.087    -359.486
  O      634.621     -69.273    -361.772
  H      635.728     -67.678    -358.974
  H      635.554     -67.225    -363.593
  H      636.678     -66.061    -362.842
  H      635.034     -65.548    -363.296
  H      639.839     -63.586    -365.096
  H      641.308     -63.547    -364.150
  H      639.759     -63.693    -363.354

 3  4  5  6  7  8  9  10  11  12  13  23  28  29  30  31  32 0
 6-311+G(2d,p)
 ****
 33  34 0
 6-311+G(2d,p)
 ****
 1  2  14  15  16  17  18  19  20  21  22  24  25  26 0
 3-21G
 ****
 27  35  36  37  38  39  40  41  42  43  44  45 0
 3-21G
 ****


