%nproc=1
%NoSave
%Mem=1900MB
#P OB98/GEN NMR

erre ene a

0 1
  C       30.403     222.624     -65.740
  O       29.511     222.463     -66.842
  P       29.445     221.034     -67.567
  C       27.169     220.247     -66.640
  O       28.576     220.039     -66.654
  C       26.428     218.951     -67.013
  O       26.827     217.899     -66.095
  C       24.900     219.029     -66.915
  O       24.169     219.463     -68.061
  C       24.538     217.562     -66.698
  O       24.488     216.880     -67.966
  C       25.702     217.021     -65.871
  N       22.515     215.088     -62.366
  C       22.554     214.975     -63.712
  N       23.438     215.523     -64.572
  C       24.359     216.242     -63.916
  C       24.449     216.445     -62.548
  C       23.467     215.833     -61.753
  N       23.418     215.957     -60.384
  N       25.527     217.250     -62.244
  C       26.068     217.541     -63.411
  N       25.409     216.946     -64.450
  O       30.744     220.488     -68.056
  O       28.450     221.317     -68.794
  H       24.129     215.990     -67.789
  H       28.758     220.814     -69.572
  H       21.772     214.366     -64.158
  H       26.931     218.177     -63.548
  H       26.006     216.017     -66.187
  H       23.554     217.437     -66.238
  H       24.595     219.619     -66.041
  H       26.722     218.649     -68.027
  H       26.909     221.037     -67.347
  H       22.654     215.520     -59.893
  H       24.085     216.553     -59.915
  H       26.900     220.610     -65.647
  P       24.152     221.000     -68.508
  C       25.584     220.641     -70.667
  O       25.479     221.210     -69.381
  O       23.980     221.979     -67.399
  O       22.990     221.029     -69.606
  H       23.200     220.551     -70.426
  H       26.452     221.072     -71.173
  H       24.690     220.851     -71.261
  H       25.725     219.560     -70.584
  H       30.332     223.624     -65.367
  H       31.405     222.433     -66.062
  H       30.140     221.935     -64.965

 3  4  5  6  7  8  9  10  11  12  22  25  29  30  31  32 0
 6-311+G(2d,p)
 ****
 33  36  37 0
 6-311+G(2d,p)
 ****
 1  2  13  14  15  16  17  18  19  20  21  23  24  26 0
 3-21G
 ****
 27  28  34  35  38  39  40  41  42  43  44  45  46  47  48 0
 3-21G
 ****


