%nproc=1
%NoSave
%Mem=1900MB
#P OB98/GEN NMR

erre ene a

0 1
  C       44.875     212.723     252.583
  O       43.693     213.490     252.445
  H       44.796     212.121     253.494
  H       45.748     213.376     252.672
  H       44.996     212.052     251.728
  P       43.569     214.468     251.182
  C       41.648     212.945     250.365
  O       42.862     213.605     250.028
  C       41.838     211.432     250.296
  O       42.860     211.012     251.220
  C       40.582     210.635     250.642
  O       39.710     210.570     249.523
  C       41.201     209.292     251.001
  O       41.573     208.592     249.800
  C       42.457     209.728     251.775
  N       41.250     207.376     256.103
  C       41.284     206.890     254.808
  N       40.901     205.607     254.641
  N       41.639     207.607     253.771
  C       41.932     208.890     254.085
  C       41.920     209.491     255.322
  C       41.575     208.676     256.469
  O       41.551     209.061     257.637
  N       42.207     210.831     255.237
  C       42.435     211.029     253.956
  N       42.264     209.887     253.207
  O       44.832     215.147     250.741
  O       42.437     215.514     251.609
  H       42.109     207.824     250.079
  H       42.827     216.307     252.021
  H       40.949     206.781     256.857
  H       42.723     211.976     253.513
  H       43.294     209.031     251.635
  H       40.524     208.643     251.560
  H       40.356     205.118     255.341
  H       40.079     211.033     251.530
  H       40.868     205.249     253.697
  H       42.193     211.184     249.285
  H       40.885     213.268     249.649
  H       41.328     213.231     251.375
  P       38.127     210.803     249.689
  C       37.756     212.294     247.611
  O       37.854     212.240     249.029
  O       37.617     210.652     251.082
  O       37.463     209.803     248.639
  H       37.288     208.901     249.009
  H       37.574     213.303     247.304
  H       36.949     211.671     247.285
  H       38.671     211.949     247.177

 6  7  8  9  10  11  12  13  14  15  26  29  33  34 0
 6-311+G(2d,p)
 ****
 36  38  39  40  41 0
 6-311+G(2d,p)
 ****
 1  2  3  4  5  16  17  18  19  20  21  22  23  24  25 0
 3-21G
 ****
 27  28  30  31  32  35  37  42  43  44  45  46  47 0
 3-21G
 ****
 48  49 0
 3-21G
 ****


