%nproc=1
%NoSave
%Mem=1900MB
#P OB98/GEN NMR

erre ene a

0 1
  C       19.843     118.307      32.250
  O       19.512     117.233      31.387
  P       18.006     116.711      31.266
  C       16.338     115.412      32.822
  O       17.603     116.011      32.640
  C       16.528     114.047      33.495
  O       17.175     114.209      34.774
  C       15.191     113.347      33.728
  O       14.898     112.459      32.663
  C       15.411     112.647      35.056
  O       16.123     111.411      34.860
  C       16.303     113.667      35.802
  N       15.645     114.798      36.484
  C       14.697     114.548      37.472
  O       14.383     113.423      37.847
  N       14.092     115.657      38.009
  C       14.375     116.953      37.688
  O       13.671     117.911      37.989
  C       15.561     117.153      36.851
  C       16.117     116.087      36.278
  O       18.130     115.484      30.248
  O       17.011     117.725      30.804
  H       16.218     110.993      35.736
  H       17.879     115.758      29.346
  H       13.305     115.478      38.625
  H       15.907     118.164      36.685
  H       16.974     116.214      35.621
  H       16.934     113.167      36.545
  H       14.465     112.381      35.523
  H       14.390     114.088      33.852
  H       17.177     113.428      32.864
  H       15.836     115.296      31.856
  H       15.704     116.055      33.441
  P       13.375     112.162      32.275
  C       11.465     110.843      33.362
  O       12.844     111.149      33.400
  O       13.139     111.736      30.865
  O       12.636     113.543      32.610
  H       12.529     114.070      31.792
  H       11.269     110.019      34.051
  H       11.165     110.544      32.352
  H       10.885     111.714      33.678
  H       20.893     118.503      32.188
  H       19.587     118.048      33.256
  H       19.299     119.181      31.957

 3  4  5  6  7  8  9  10  11  12  13  23  28  29  30  31  32 0
 6-311+G(2d,p)
 ****
 33  34 0
 6-311+G(2d,p)
 ****
 1  2  14  15  16  17  18  19  20  21  22  24  25  26  27 0
 3-21G
 ****
 35  36  37  38  39  40  41  42  43  44  45 0
 3-21G
 ****


