%nproc=1
%NoSave
%Mem=1900MB
#P OB98/GEN NMR

erre ene a

0 1
  C      -27.949      35.847     -57.702
  O      -26.572      35.477     -57.563
  P      -25.556      36.108     -58.640
  C      -25.462      34.147     -60.341
  O      -24.771      34.899     -59.350
  C      -24.620      32.980     -60.859
  O      -23.273      33.442     -61.122
  C      -24.507      31.792     -59.897
  O      -24.508      30.579     -60.663
  C      -23.120      31.952     -59.304
  O      -22.605      30.724     -58.797
  C      -22.367      32.510     -60.509
  N      -17.330      32.079     -60.419
  C      -18.277      31.245     -60.979
  N      -17.815      30.127     -61.580
  N      -19.561      31.485     -60.954
  C      -19.876      32.656     -60.348
  C      -19.029      33.573     -59.765
  C      -17.614      33.271     -59.765
  O      -16.730      33.944     -59.240
  N      -19.722      34.641     -59.251
  C      -20.984      34.367     -59.515
  N      -21.128      33.171     -60.172
  O      -24.446      36.809     -57.725
  O      -26.195      37.087     -59.567
  H      -22.871      30.023     -59.421
  H      -24.373      37.754     -57.956
  H      -16.356      31.836     -60.450
  H      -21.828      34.980     -59.235
  H      -22.146      31.723     -61.240
  H      -23.157      32.674     -58.480
  H      -16.837      29.914     -61.692
  H      -25.290      31.751     -59.133
  H      -18.491      29.526     -62.036
  H      -25.042      32.653     -61.817
  H      -25.719      34.803     -61.178
  H      -26.397      33.776     -59.908
  P      -25.924      30.109     -61.253
  C      -26.812      28.611     -59.321
  O      -26.215      28.675     -60.601
  O      -25.594      29.770     -62.782
  O      -27.010      31.123     -61.117
  H      -26.391      29.885     -63.333
  H      -27.195      29.581     -58.994
  H      -26.069      28.263     -58.600
  H      -27.640      27.898     -59.352
  H      -28.525      35.371     -56.937
  H      -28.306      35.538     -58.662
  H      -28.044      36.909     -57.611

 3  4  5  6  7  8  9  10  11  12  23  26  30  31  33  0
 6-311+G(2d,p)
 ****
 35  36  37  38 0
 6-311+G(2d,p)
 ****
 1  2  13  14  15  16  17  18  19  20  21  22  24  25  27  28  29 0
 3-21G
 ****
 32  34  39  40  41  42  43  44  45  46  47  48  49 0
 3-21G
 ****


