%nproc=1
%NoSave
%Mem=1900MB
#P OB98/GEN NMR

erre ene a

0 1
  C     -150.509     257.913      -7.354
  O     -151.837     257.826      -7.829
  H     -149.991     258.700      -7.909
  H     -149.983     256.970      -7.510
  H     -150.501     258.173      -6.292
  P     -152.797     256.695      -7.224
  C     -151.332     254.833      -8.246
  O     -152.637     255.402      -8.161
  C     -151.376     253.535      -9.066
  O     -152.134     252.557      -8.315
  C     -152.060     253.729     -10.433
  O     -151.267     253.275     -11.528
  C     -153.425     253.082     -10.236
  O     -154.032     252.602     -11.420
  C     -153.151     252.009      -9.174
  N     -154.329     251.622      -8.401
  C     -155.403     251.076      -9.103
  O     -155.428     250.869     -10.317
  N     -156.497     250.746      -8.344
  C     -156.617     250.907      -6.994
  O     -157.628     250.585      -6.371
  C     -155.462     251.509      -6.315
  C     -154.389     251.834      -7.035
  O     -154.210     257.114      -6.974
  O     -152.069     256.252      -5.866
  H     -154.968     252.405     -11.213
  H     -152.522     256.658      -5.103
  H     -157.277     250.340      -8.839
  H     -155.530     251.660      -5.246
  H     -153.514     252.278      -6.567
  H     -152.749     251.106      -9.641
  H     -154.107     253.837      -9.808
  H     -152.202     254.795     -10.648
  H     -150.356     253.153      -9.178
  H     -150.991     254.623      -7.224
  H     -150.647     255.544      -8.713
  P     -150.297     254.203     -12.394
  C     -152.248     255.273     -13.785
  O     -151.030     254.538     -13.776
  O     -148.878     253.755     -12.470
  O     -150.326     255.608     -11.597
  H     -149.440     256.015     -11.715
  H     -152.583     255.396     -14.794
  H     -152.088     256.234     -13.342
  H     -152.989     254.742     -13.226

 6  7  8  9  10  11  12  13  14  15  16  26  31  32  33  34  35 0
 6-311+G(2d,p)
 ****
 36  37 0
 6-311+G(2d,p)
 ****
 1  2  3  4  5  17  18  19  20  21  22  23  24  25 0
 3-21G
 ****
 27  28  29  30  38  39  40  41  42  43  44  45 0
 3-21G
 ****


