%nproc=1
%NoSave
%Mem=1900MB
#P OB98/GEN NMR

erre ene a

0 1
  C        6.653    -288.985    -344.937
  O        5.362    -289.550    -344.767
  P        4.715    -290.507    -345.883
  C        3.621    -288.449    -347.007
  O        4.475    -289.571    -347.163
  C        2.742    -288.275    -348.255
  O        3.586    -287.874    -349.363
  C        1.992    -289.545    -348.681
  O        0.730    -289.134    -349.208
  C        2.872    -290.109    -349.777
  O        2.176    -290.984    -350.651
  C        3.381    -288.817    -350.434
  N        4.597    -289.019    -351.204
  C        4.492    -289.088    -352.595
  O        3.389    -289.008    -353.150
  N        5.636    -289.253    -353.338
  C        6.777    -289.414    -352.741
  N        7.892    -289.512    -353.521
  C        6.924    -289.457    -351.274
  C        5.808    -289.228    -350.579
  O        3.512    -291.264    -345.438
  O        5.923    -291.428    -346.369
  H        1.445    -290.485    -351.066
  H        6.062    -292.225    -345.797
  H        7.891    -289.625    -350.822
  H        5.821    -289.216    -349.493
  H        2.600    -288.391    -351.081
  H        3.699    -290.673    -349.329
  H        1.825    -290.242    -347.848
  H        2.032    -287.456    -348.063
  H        7.771    -289.307    -354.509
  H        4.238    -287.555    -346.889
  H        8.812    -289.315    -353.147
  H        3.008    -288.573    -346.110
  P       -0.611    -289.699    -348.524
  C       -1.484    -291.419    -350.263
  O       -0.830    -291.204    -349.032
  O       -1.758    -288.904    -349.327
  O       -0.760    -289.450    -347.057
  H       -2.553    -288.841    -348.768
  H       -1.542    -292.499    -350.451
  H       -0.926    -290.954    -351.080
  H       -2.503    -291.024    -350.232
  H        6.894    -288.384    -344.085
  H        6.663    -288.377    -345.817
  H        7.375    -289.768    -345.037

 3  4  5  6  7  8  9  10  11  12  13  23  27  28  29  30  32 0
 6-311+G(2d,p)
 ****
 34  35 0
 6-311+G(2d,p)
 ****
 1  2  14  15  16  17  18  19  20  21  22  24  25  26 0
 3-21G
 ****
 31  33  36  37  38  39  40  41  42  43  44  45  46 0
 3-21G
 ****


