%nproc=1
%NoSave
%Mem=1900MB
#P OB98/GEN NMR

erre ene a

0 1
  C     -230.352     324.016     161.778
  O     -230.159     322.657     162.126
  P     -231.075     321.951     163.233
  C     -229.962     323.256     165.138
  O     -231.183     322.942     164.489
  C     -229.687     322.311     166.311
  O     -228.598     322.839     167.114
  C     -230.892     322.100     167.240
  O     -230.882     320.726     167.646
  C     -230.589     323.008     168.416
  O     -231.278     322.622     169.592
  C     -229.057     322.885     168.484
  N     -228.445     323.981     169.212
  C     -228.705     324.044     170.589
  O     -229.520     323.278     171.101
  N     -228.037     324.981     171.335
  C     -227.330     325.892     170.740
  N     -226.636     326.767     171.523
  C     -227.240     326.006     169.272
  C     -227.781     325.007     168.579
  O     -230.677     320.553     163.580
  O     -232.549     321.987     162.614
  H     -232.924     321.088     162.623
  H     -231.048     321.691     169.805
  H     -226.748     326.857     168.813
  H     -227.742     324.976     167.492
  H     -228.767     321.935     168.949
  H     -230.875     324.038     168.171
  H     -231.848     322.321     166.752
  H     -229.353     321.351     165.902
  H     -226.686     326.631     172.526
  H     -230.031     324.277     165.514
  H     -225.829     327.283     171.168
  H     -229.133     323.225     164.416
  P     -232.036     319.756     167.101
  C     -233.549     320.109     169.188
  O     -233.420     320.204     167.781
  O     -231.709     318.391     167.878
  O     -232.060     319.505     165.623
  H     -232.067     317.638     167.367
  H     -234.567     320.388     169.465
  H     -232.852     320.792     169.675
  H     -233.363     319.083     169.516
  H     -229.645     324.295     161.025
  H     -230.213     324.629     162.644
  H     -231.345     324.150     161.402

 3  4  5  6  7  8  9  10  11  12  13  24  27  28  29  30  32 0
 6-311+G(2d,p)
 ****
 34  35 0
 6-311+G(2d,p)
 ****
 1  2  14  15  16  17  18  19  20  21  22  23  25  26 0
 3-21G
 ****
 31  33  36  37  38  39  40  41  42  43  44  45  46 0
 3-21G
 ****


