%nproc=1
%NoSave
%Mem=1900MB
#P OB98/GEN NMR

erre ene a

0 1
  C       88.795     -14.825     -57.198
  O       89.488     -15.617     -58.146
  P       89.268     -17.205     -58.083
  C       88.802     -17.621     -60.608
  O       88.271     -17.557     -59.287
  C       88.728     -16.252     -61.277
  O       89.604     -15.328     -60.609
  C       89.165     -16.251     -62.732
  O       88.144     -16.773     -63.559
  C       89.450     -14.772     -62.959
  O       88.255     -14.067     -63.332
  C       89.954     -14.309     -61.572
  N       91.380     -14.033     -61.560
  C       91.816     -13.041     -62.447
  O       91.009     -12.477     -63.188
  N       93.156     -12.745     -62.498
  C       93.984     -13.386     -61.733
  N       95.299     -13.047     -61.821
  C       93.568     -14.451     -60.800
  C       92.265     -14.725     -60.769
  O       88.362     -17.395     -56.779
  O       90.525     -18.008     -58.024
  H       87.929     -14.508     -64.143
  H       88.490     -18.282     -56.394
  H       94.299     -14.955     -60.185
  H       91.874     -15.494     -60.114
  H       89.429     -13.397     -61.262
  H       90.174     -14.616     -63.763
  H       90.089     -16.829     -62.857
  H       87.699     -15.880     -61.183
  H       95.554     -12.318     -62.475
  H       88.219     -18.335     -61.197
  H       96.019     -13.471     -61.254
  H       89.837     -17.974     -60.556
  P       88.348     -18.245     -64.156
  C       85.965     -19.127     -63.807
  O       87.305     -19.161     -63.356
  O       89.746     -18.682     -63.505
  O       88.352     -18.384     -65.641
  H       90.033     -19.537     -63.875
  H       85.400     -19.902     -63.287
  H       85.918     -19.316     -64.883
  H       85.521     -18.154     -63.580
  H       89.032     -13.793     -57.354
  H       89.088     -15.113     -56.210
  H       87.741     -14.970     -57.314

 3  4  5  6  7  8  9  10  11  12  13  21  23  27  28  29  30  32 0
 6-311+G(2d,p)
 ****
 34  35 0
 6-311+G(2d,p)
 ****
 1  2  14  15  16  17  18  19  20  22  24  25  26 0
 3-21G
 ****
 31  33  36  37  38  39  40  41  42  43  44  45  46 0
 3-21G
 ****


