%nproc=1
%NoSave
%Mem=1900MB
#P OB98/GEN NMR

erre ene a

0 1
  C     -369.441     -78.942    -424.884
  O     -370.324     -80.021    -424.638
  H     -370.029     -78.031    -425.015
  H     -368.875     -79.134    -425.800
  H     -368.754     -78.802    -424.043
  P     -369.666     -81.380    -424.091
  C     -368.213     -83.268    -425.125
  O     -368.803     -81.989    -425.304
  C     -367.277     -83.588    -426.288
  O     -368.020     -83.702    -427.520
  C     -366.203     -82.532    -426.536
  O     -365.082     -82.715    -425.675
  C     -365.836     -82.834    -427.978
  O     -364.990     -84.003    -428.033
  C     -367.209     -83.149    -428.595
  N     -369.632     -81.347    -432.674
  C     -369.004     -82.562    -432.483
  N     -369.018     -83.420    -433.529
  N     -368.416     -82.913    -431.365
  C     -368.461     -81.947    -430.416
  C     -369.045     -80.704    -430.486
  C     -369.711     -80.338    -431.718
  O     -370.292     -79.279    -431.935
  N     -368.885     -80.002    -429.316
  C     -368.185     -80.812    -428.547
  N     -367.897     -82.008    -429.166
  O     -370.926     -82.365    -423.989
  O     -368.960     -81.269    -422.785
  H     -364.629     -84.052    -428.938
  H     -371.202     -82.433    -423.055
  H     -370.066     -81.125    -433.553
  H     -367.869     -80.591    -427.537
  H     -367.143     -83.909    -429.384
  H     -365.285     -82.022    -428.454
  H     -369.435     -83.201    -434.424
  H     -366.604     -81.513    -426.461
  H     -368.563     -84.314    -433.410
  H     -366.817     -84.567    -426.094
  H     -369.004     -84.025    -425.077
  H     -367.651     -83.278    -424.181
  P     -364.099     -81.471    -425.434
  C     -361.734     -80.785    -426.238
  O     -362.770     -81.744    -426.298
  O     -363.618     -81.694    -423.923
  O     -364.720     -80.125    -425.614
  H     -363.992     -80.996    -423.349
  H     -360.921     -81.099    -426.859
  H     -361.395     -80.689    -425.228
  H     -362.102     -79.841    -426.582

 6  7  8  9  10  11  12  13  14  15  26  29  33  34 0
 6-311+G(2d,p)
 ****
 36  38  39  40  41 0
 6-311+G(2d,p)
 ****
 1  2  3  4  5  16  17  18  19  20  21  22  23  24  25 0
 3-21G
 ****
 27  28  30  31  32  35  37  42  43  44  45  46  47 0
 3-21G
 ****
 48  49 0
 3-21G
 ****


