%nproc=1
%NoSave
%Mem=1900MB
#P OB98/GEN NMR

erre ene a

0 1
  C      129.239     109.025      -7.915
  O      128.011     108.613      -7.342
  P      127.065     109.752      -6.717
  C      127.738     108.850      -4.376
  O      127.571     109.988      -5.213
  C      126.935     108.986      -3.082
  O      127.407     110.148      -2.357
  C      125.427     109.140      -3.296
  O      124.760     108.435      -2.246
  C      125.194     110.630      -3.115
  O      123.850     110.913      -2.728
  C      126.258     110.973      -2.059
  N      126.604     112.392      -2.068
  C      125.611     113.286      -1.650
  O      124.485     112.872      -1.377
  N      125.907     114.629      -1.605
  C      127.054     115.047      -2.044
  N      127.296     116.387      -1.975
  C      128.081     114.149      -2.608
  C      127.803     112.847      -2.567
  O      125.670     108.993      -6.522
  O      126.927     110.981      -7.557
  H      123.787     111.873      -2.529
  H      124.917     109.607      -6.636
  H      129.006     114.556      -2.991
  H      128.508     112.113      -2.936
  H      125.907     110.705      -1.053
  H      125.403     111.156      -4.055
  H      125.094     108.759      -4.266
  H      127.141     108.107      -2.455
  H      126.571     116.983      -1.600
  H      128.797     108.754      -4.112
  H      128.162     116.807      -2.293
  H      127.443     107.947      -4.924
  P      123.327     107.795      -2.570
  C      122.067     109.059      -0.723
  O      122.261     108.904      -2.117
  O      123.185     106.714      -1.392
  O      123.121     107.163      -3.908
  H      122.366     106.199      -1.515
  H      121.430     109.931      -0.552
  H      123.023     109.219      -0.217
  H      121.570     108.175      -0.316
  H      129.763     108.170      -8.289
  H      129.835     109.511      -7.171
  H      129.047     109.706      -8.718

 3  4  5  6  7  8  9  10  11  12  13  21  23  27  28  29  30  32 0
 6-311+G(2d,p)
 ****
 34  35 0
 6-311+G(2d,p)
 ****
 1  2  14  15  16  17  18  19  20  22  24  25  26 0
 3-21G
 ****
 31  33  36  37  38  39  40  41  42  43  44  45  46 0
 3-21G
 ****


