%nproc=1
%NoSave
%Mem=1900MB
#P OB98/GEN NMR

erre ene a

0 1
  C      189.779    -166.331    -246.866
  O      190.848    -166.524    -247.771
  H      190.061    -166.755    -245.898
  H      188.878    -166.836    -247.226
  H      189.585    -165.263    -246.740
  P      190.621    -165.999    -249.270
  C      191.034    -163.750    -250.459
  O      191.104    -164.466    -249.232
  C      191.312    -162.264    -250.226
  O      190.287    -161.735    -249.346
  C      192.670    -161.994    -249.574
  O      193.233    -160.811    -250.136
  C      192.323    -161.749    -248.116
  O      193.294    -160.943    -247.453
  C      190.940    -161.109    -248.230
  N      188.934    -158.733    -244.186
  C      189.543    -158.269    -245.297
  N      190.035    -158.973    -246.338
  C      189.804    -160.287    -246.171
  C      189.200    -160.909    -245.093
  C      188.756    -160.070    -244.056
  N      188.158    -160.537    -242.910
  N      189.187    -162.279    -245.271
  C      189.761    -162.478    -246.442
  N      190.165    -161.305    -247.017
  O      189.259    -166.225    -249.836
  O      191.816    -166.719    -250.051
  H      192.847    -160.458    -246.729
  H      192.652    -166.669    -249.551
  H      189.656    -157.188    -245.357
  H      189.919    -163.445    -246.908
  H      190.991    -160.029    -248.413
  H      192.262    -162.709    -247.586
  H      193.364    -162.827    -249.693
  H      191.214    -161.735    -251.181
  H      190.043    -163.870    -250.910
  H      187.856    -159.865    -242.223
  H      188.001    -161.529    -242.803
  H      191.779    -164.173    -251.140
  P      194.545    -160.947    -251.046
  C      193.353    -162.622    -252.607
  O      194.101    -161.414    -252.517
  O      195.679    -161.708    -250.447
  O      194.956    -159.415    -251.290
  H      195.929    -159.344    -251.283
  H      193.120    -162.822    -253.632
  H      192.446    -162.522    -252.048
  H      193.931    -163.430    -252.208

 6  7  8  9  10  11  12  13  14  15  25  28  32  33  34  35 0
 6-311+G(2d,p)
 ****
 36  39  40 0
 6-311+G(2d,p)
 ****
 1  2  3  4  5  16  17  18  19  20  21  22  23  24 0
 3-21G
 ****
 26  27  29  30  31  37  38  41  42  43  44  45  46  47 0
 3-21G
 ****
 48 0
 3-21G
 ****


