%nproc=1
%NoSave
%Mem=1900MB
#P OB98/GEN NMR

erre ene a

0 1
  C     -193.986    -328.724     552.707
  O     -193.985    -327.393     552.237
  P     -193.706    -326.173     553.243
  C     -195.913    -325.079     552.503
  O     -195.141    -325.550     553.603
  C     -197.263    -324.560     552.997
  O     -198.134    -325.652     553.383
  C     -197.173    -323.686     554.243
  O     -196.522    -322.444     554.120
  C     -198.630    -323.666     554.691
  O     -199.389    -322.715     553.949
  C     -199.083    -325.108     554.337
  N     -199.200    -325.948     555.531
  C     -200.131    -325.535     556.473
  O     -200.822    -324.525     556.354
  N     -200.216    -326.303     557.606
  C     -199.448    -327.401     557.889
  O     -199.549    -328.020     558.937
  C     -198.470    -327.781     556.851
  C     -198.391    -327.054     555.740
  O     -192.697    -325.180     552.771
  O     -193.304    -326.910     554.610
  H     -198.876    -321.880     553.931
  H     -193.990    -327.500     554.969
  H     -200.871    -326.017     558.310
  H     -197.860    -328.652     557.043
  H     -197.675    -327.312     554.961
  H     -200.058    -325.088     553.834
  H     -198.723    -323.405     555.751
  H     -196.615    -324.242     555.003
  H     -197.754    -324.034     552.172
  H     -196.082    -325.906     551.805
  H     -195.356    -324.297     551.973
  P     -195.846    -321.679     555.355
  C     -197.377    -319.614     554.977
  O     -196.880    -320.574     555.892
  O     -194.422    -321.264     555.190
  O     -195.934    -322.798     556.511
  H     -195.173    -322.686     557.114
  H     -198.024    -318.924     555.517
  H     -197.964    -320.108     554.194
  H     -196.554    -319.052     554.528
  H     -194.189    -329.389     551.894
  H     -194.740    -328.837     553.457
  H     -193.029    -328.955     553.126

 3  4  5  6  7  8  9  10  11  12  13  23  28  29  30  31  32 0
 6-311+G(2d,p)
 ****
 33  34 0
 6-311+G(2d,p)
 ****
 1  2  14  15  16  17  18  19  20  21  22  24  25  26  27 0
 3-21G
 ****
 35  36  37  38  39  40  41  42  43  44  45 0
 3-21G
 ****


