%nproc=1
%NoSave
%Mem=1900MB
#P OB98/GEN NMR

erre ene a

0 1
  C     -211.231      42.270      -3.847
  O     -212.492      41.654      -3.693
  H     -210.940      42.213      -4.898
  H     -210.486      41.739      -3.246
  H     -211.263      43.321      -3.548
  P     -213.314      41.906      -2.343
  C     -214.147      44.088      -3.443
  O     -214.495      42.936      -2.692
  C     -215.394      44.780      -4.006
  O     -216.152      43.838      -4.804
  C     -216.310      45.236      -2.867
  O     -217.082      46.380      -3.223
  C     -217.240      44.045      -2.685
  O     -218.467      44.388      -2.046
  C     -217.397      43.575      -4.130
  N     -220.970      39.977      -3.632
  C     -221.017      41.310      -3.275
  N     -222.158      41.734      -2.687
  N     -220.028      42.145      -3.462
  C     -218.924      41.564      -3.990
  C     -218.748      40.251      -4.362
  C     -219.863      39.346      -4.187
  O     -219.873      38.149      -4.469
  N     -217.481      40.030      -4.844
  C     -216.889      41.204      -4.757
  N     -217.728      42.171      -4.257
  O     -212.324      42.802      -1.456
  O     -213.746      40.674      -1.607
  H     -218.925      45.034      -2.615
  H     -212.526      42.695      -0.510
  H     -221.765      39.381      -3.481
  H     -215.864      41.407      -5.044
  H     -218.184      44.147      -4.640
  H     -216.737      43.311      -2.049
  H     -222.870      41.095      -2.366
  H     -215.755      45.453      -1.955
  H     -222.102      42.611      -2.160
  H     -215.106      45.601      -4.670
  H     -213.501      43.755      -4.264
  H     -213.566      44.780      -2.829
  P     -216.802      47.742      -2.423
  C     -214.697      48.619      -3.722
  O     -216.075      48.758      -3.427
  O     -215.660      47.335      -1.381
  O     -218.009      48.301      -1.748
  H     -216.036      47.257      -0.483
  H     -214.400      49.386      -4.406
  H     -214.522      47.660      -4.163
  H     -214.129      48.706      -2.820

 6  7  8  9  10  11  12  13  14  15  26  29  33  34 0
 6-311+G(2d,p)
 ****
 36  38  39  40  41 0
 6-311+G(2d,p)
 ****
 1  2  3  4  5  16  17  18  19  20  21  22  23  24  25 0
 3-21G
 ****
 27  28  30  31  32  35  37  42  43  44  45  46  47 0
 3-21G
 ****
 48  49 0
 3-21G
 ****


