%nproc=1
%NoSave
%Mem=1900MB
#P OB98/GEN NMR

erre ene a

0 1
  C      -12.709      56.374      22.610
  O      -13.034      57.684      23.029
  H      -13.623      55.776      22.599
  H      -11.998      55.912      23.301
  H      -12.292      56.391      21.600
  P      -11.838      58.734      23.241
  C      -10.048      59.697      21.634
  O      -11.023      58.690      21.855
  C       -9.032      59.229      20.595
  O       -8.213      58.162      21.116
  C       -9.639      58.663      19.315
  O      -10.177      59.655      18.459
  C       -8.415      57.983      18.722
  O       -7.545      58.975      18.148
  C       -7.779      57.354      19.985
  N       -8.160      55.957      20.180
  C       -7.208      54.992      19.826
  O       -6.114      55.328      19.376
  N       -7.532      53.663      19.955
  C       -8.709      53.326      20.381
  N       -8.996      51.996      20.445
  C       -9.735      54.308      20.780
  C       -9.401      55.590      20.652
  O      -11.012      58.554      24.474
  O      -12.546      60.166      23.152
  H       -8.056      59.438      17.459
  H      -11.848      60.852      23.290
  H      -10.704      53.973      21.121
  H      -10.108      56.370      20.909
  H       -6.686      57.420      19.944
  H       -8.659      57.268      17.932
  H      -10.387      57.896      19.543
  H       -8.363      60.073      20.384
  H       -8.285      51.354      20.122
  H       -9.561      59.915      22.589
  H       -9.954      51.665      20.493
  H      -10.526      60.608      21.262
  P      -11.151      59.177      17.273
  C      -13.420      57.897      17.220
  O      -12.232      58.193      17.936
  O      -10.220      58.198      16.421
  O      -11.748      60.271      16.445
  H       -9.792      58.674      15.682
  H      -14.028      57.232      17.797
  H      -13.169      57.433      16.289
  H      -13.959      58.802      17.033

 6  7  8  9  10  11  12  13  14  15  16  26  30  31  32  33  35 0
 6-311+G(2d,p)
 ****
 37  38 0
 6-311+G(2d,p)
 ****
 1  2  3  4  5  17  18  19  20  21  22  23  24  25 0
 3-21G
 ****
 27  28  29  34  36  39  40  41  42  43  44  45  46 0
 3-21G
 ****


