%nproc=1
%NoSave
%Mem=1900MB
#P OB98/GEN NMR

erre ene a

0 1
  C      -31.086       4.441     147.301
  O      -30.009       4.715     148.173
  H      -31.361       5.362     146.781
  H      -31.953       4.085     147.865
  H      -30.790       3.693     146.562
  P      -29.515       3.515     149.114
  C      -29.976       4.187     151.582
  O      -30.452       3.528     150.415
  C      -29.938       5.692     151.338
  O      -31.224       6.142     150.850
  C      -29.669       6.518     152.587
  O      -28.297       6.541     152.945
  C      -30.175       7.881     152.147
  O      -29.177       8.606     151.415
  C      -31.372       7.520     151.249
  N      -32.646       7.763     151.922
  C      -32.820       9.044     152.439
  O      -31.974       9.931     152.346
  N      -33.993       9.263     153.106
  C      -34.963       8.334     153.345
  O      -35.967       8.583     154.001
  C      -34.717       6.994     152.791
  C      -33.585       6.771     152.118
  O      -28.102       4.033     149.656
  O      -29.403       2.189     148.437
  H      -27.381       3.548     149.214
  H      -29.028       8.101     150.592
  H      -34.140      10.186     153.486
  H      -35.466       6.231     152.964
  H      -33.375       5.788     151.709
  H      -31.355       8.117     150.329
  H      -30.452       8.488     153.004
  H      -30.288       6.160     153.419
  H      -29.184       5.902     150.567
  H      -28.964       3.840     151.814
  H      -30.632       3.942     152.422
  P      -27.928       6.887     154.468
  C      -26.934       9.295     154.839
  O      -28.068       8.478     154.601
  O      -26.352       6.616     154.457
  O      -28.702       6.083     155.456
  H      -25.969       6.745     153.571
  H      -27.238      10.319     154.895
  H      -26.233       9.174     154.040
  H      -26.475       9.008     155.762

 6  7  8  9  10  11  12  13  14  15  16  27  31  32  33  34  35 0
 6-311+G(2d,p)
 ****
 36  37 0
 6-311+G(2d,p)
 ****
 1  2  3  4  5  17  18  19  20  21  22  23  24  25 0
 3-21G
 ****
 26  28  29  30  38  39  40  41  42  43  44  45 0
 3-21G
 ****


