%nproc=1
%NoSave
%Mem=1900MB
#P OB98/GEN NMR

erre ene a

0 1
  C      -50.650      10.125      37.072
  O      -51.817      10.326      37.839
  H      -50.489      11.004      36.445
  H      -50.775       9.251      36.427
  H      -49.775       9.988      37.712
  P      -52.110       9.346      39.070
  C      -52.601       6.831      39.384
  O      -52.370       7.885      38.460
  C      -53.541       5.778      38.783
  O      -54.839       6.383      38.552
  C      -53.031       5.282      37.424
  O      -53.456       3.950      37.146
  C      -53.707       6.230      36.447
  O      -53.817       5.692      35.129
  C      -55.052       6.464      37.132
  N      -57.641       9.181      33.682
  C      -57.044       7.943      33.549
  N      -57.155       7.351      32.336
  N      -56.380       7.352      34.507
  C      -56.290       8.091      35.639
  C      -56.818       9.338      35.884
  C      -57.580       9.968      34.826
  O      -58.109      11.073      34.884
  N      -56.508       9.774      37.148
  C      -55.791       8.797      37.665
  N      -55.652       7.742      36.797
  O      -53.574       9.781      39.558
  O      -51.118       9.402      40.191
  H      -54.259       4.826      35.204
  H      -53.715       9.514      40.484
  H      -58.164       9.579      32.923
  H      -55.368       8.796      38.661
  H      -55.768       5.681      36.856
  H      -53.101       7.137      36.375
  H      -57.482       7.855      31.528
  H      -51.949       5.335      37.336
  H      -56.476       6.613      32.130
  H      -53.694       4.961      39.495
  H      -53.047       7.280      40.275
  H      -51.657       6.378      39.687
  P      -52.354       2.869      36.718
  C      -50.884       2.589      34.535
  O      -52.107       2.941      35.143
  O      -53.094       1.469      36.927
  O      -51.076       2.950      37.496
  H      -52.655       0.954      37.631
  H      -50.962       2.720      33.476
  H      -50.659       1.566      34.753
  H      -50.104       3.215      34.915

 6  7  8  9  10  11  12  13  14  15  26  29  33  34 0
 6-311+G(2d,p)
 ****
 36  38  39  40  41 0
 6-311+G(2d,p)
 ****
 1  2  3  4  5  16  17  18  19  20  21  22  23  24  25 0
 3-21G
 ****
 27  28  30  31  32  35  37  42  43  44  45  46  47 0
 3-21G
 ****
 48  49 0
 3-21G
 ****


