%nproc=1
%NoSave
%Mem=1900MB
#P OB98/GEN NMR

erre ene a

0 1
  C      -24.260    -196.518     -19.900
  O      -25.476    -196.347     -20.639
  P      -25.865    -197.464     -21.718
  C      -26.472    -199.992     -21.653
  O      -26.321    -198.782     -20.927
  C      -27.296    -200.999     -20.844
  O      -26.664    -201.315     -19.583
  C      -28.693    -200.505     -20.497
  O      -29.604    -200.707     -21.569
  C      -29.048    -201.423     -19.337
  O      -29.477    -202.704     -19.840
  C      -27.708    -201.555     -18.605
  N      -28.602    -200.809     -13.683
  C      -28.869    -201.904     -14.479
  N      -29.456    -202.960     -13.874
  N      -28.588    -201.961     -15.756
  C      -27.989    -200.841     -16.220
  C      -27.672    -199.691     -15.532
  C      -28.001    -199.636     -14.125
  O      -27.800    -198.688     -13.372
  N      -27.076    -198.767     -16.350
  C      -27.013    -199.361     -17.525
  N      -27.569    -200.616     -17.504
  O      -24.440    -197.888     -22.320
  O      -26.795    -196.990     -22.785
  H      -28.718    -203.082     -20.325
  H      -24.550    -198.207     -23.233
  H      -28.844    -200.817     -12.706
  H      -26.576    -198.927     -18.417
  H      -27.553    -202.559     -18.195
  H      -29.871    -201.030     -18.733
  H      -29.652    -203.004     -12.886
  H      -28.674    -199.461     -20.160
  H      -29.630    -203.784     -14.435
  H      -27.376    -201.922     -21.431
  H      -25.494    -200.420     -21.890
  H      -26.941    -199.773     -22.616
  P      -30.617    -199.516     -21.927
  C      -30.235    -196.953     -22.098
  O      -29.703    -198.250     -22.279
  O      -31.251    -199.151     -20.502
  O      -31.665    -199.865     -22.926
  H      -32.168    -198.835     -20.617
  H      -29.432    -196.224     -22.230
  H      -30.653    -196.839     -21.095
  H      -31.010    -196.759     -22.846
  H      -24.136    -195.699     -19.223
  H      -23.432    -196.549     -20.577
  H      -24.304    -197.434     -19.348

 3  4  5  6  7  8  9  10  11  12  23  26  30  31 0
 6-311+G(2d,p)
 ****
 33  35  36  37  38 0
 6-311+G(2d,p)
 ****
 1  2  13  14  15  16  17  18  19  20  21  22  24  25 0
 3-21G
 ****
 27  28  29  32  34  39  40  41  42  43  44  45  46  47  48  49 0
 3-21G
 ****


