%nproc=1
%NoSave
%Mem=1900MB
#P OB98/GEN NMR

erre ene a

0 1
  C      -79.429     188.743     345.483
  O      -79.961     188.364     346.736
  P      -81.505     188.542     347.079
  C      -81.559     186.617     348.807
  O      -81.717     188.020     348.590
  C      -82.852     186.026     349.355
  O      -83.068     186.512     350.718
  C      -84.102     186.413     348.510
  O      -84.899     185.307     348.082
  C      -84.811     187.416     349.406
  O      -86.187     187.593     349.104
  C      -84.464     186.892     350.803
  N      -84.704     187.880     351.855
  C      -85.801     187.663     352.690
  O      -86.558     186.708     352.613
  N      -86.044     188.651     353.618
  C      -85.407     189.843     353.699
  O      -85.736     190.727     354.495
  C      -84.283     190.037     352.767
  C      -83.967     189.056     351.911
  O      -82.453     187.932     346.092
  O      -81.674     190.121     347.245
  H      -86.474     188.420     349.523
  H      -81.123     190.516     347.940
  H      -86.840     188.491     354.228
  H      -83.762     190.975     352.802
  H      -83.142     189.166     351.208
  H      -85.038     186.000     351.047
  H      -84.326     188.402     349.254
  H      -83.804     186.898     347.581
  H      -82.743     184.931     349.388
  H      -80.763     186.469     349.538
  H      -81.251     186.135     347.869
  P      -85.542     185.147     346.626
  C      -84.566     182.863     345.805
  O      -85.681     183.579     346.310
  O      -84.876     185.947     345.550
  O      -87.057     185.619     346.830
  H      -87.401     185.986     345.988
  H      -84.928     182.032     345.196
  H      -83.986     182.467     346.648
  H      -83.920     183.502     345.194
  H      -78.379     188.538     345.465
  H      -79.591     189.789     345.328
  H      -79.914     188.188     344.707

 3  4  5  6  7  8  9  10  11  12  13  23  28  29  30  31  32 0
 6-311+G(2d,p)
 ****
 33  34 0
 6-311+G(2d,p)
 ****
 1  2  14  15  16  17  18  19  20  21  22  24  25  26  27 0
 3-21G
 ****
 35  36  37  38  39  40  41  42  43  44  45 0
 3-21G
 ****


