%nproc=1
%NoSave
%Mem=1900MB
#P OB98/GEN NMR

erre ene a

0 1
  C      -12.987     529.635     -99.562
  O      -12.713     528.885    -100.729
  P      -12.000     529.649    -101.957
  C      -13.635     528.454    -103.589
  O      -12.282     528.767    -103.265
  C      -13.680     527.283    -104.568
  O      -13.387     527.720    -105.907
  C      -12.668     526.184    -104.273
  O      -13.103     525.307    -103.249
  C      -12.626     525.460    -105.611
  O      -13.753     524.574    -105.728
  C      -12.752     526.625    -106.609
  N       -8.832     525.341    -109.536
  C      -10.053     524.726    -109.389
  N      -10.244     523.583    -110.075
  N      -11.022     525.200    -108.643
  C      -10.689     526.355    -108.008
  C       -9.501     527.058    -108.074
  C       -8.442     526.517    -108.903
  O       -7.323     526.980    -109.027
  N       -9.540     528.184    -107.295
  C      -10.748     528.164    -106.760
  N      -11.466     527.055    -107.124
  O      -10.441     529.409    -101.682
  O      -12.333     531.101    -102.067
  H      -13.695     524.170    -106.622
  H       -9.908     530.044    -102.199
  H       -8.119     524.935    -110.126
  H      -11.135     528.926    -106.091
  H      -13.387     526.364    -107.458
  H      -11.727     524.850    -105.735
  H       -9.521     523.133    -110.623
  H      -11.679     526.601    -104.051
  H      -11.113     523.076    -109.941
  H      -14.706     526.873    -104.559
  H      -14.112     529.332    -104.041
  H      -14.178     528.207    -102.672
  P      -12.089     525.048    -102.034
  C      -13.151     522.880    -101.073
  O      -12.939     524.275    -100.918
  O      -11.893     526.516    -101.413
  O      -10.796     524.424    -102.431
  H      -11.026     526.582    -100.966
  H      -13.508     522.476    -100.113
  H      -12.226     522.367    -101.354
  H      -13.912     522.703    -101.838
  H      -13.457     529.006     -98.836
  H      -13.639     530.448     -99.805
  H      -12.072     530.019     -99.162

 3  4  5  6  7  8  9  10  11  12  23  26  30  31 0
 6-311+G(2d,p)
 ****
 33  35  36  37  38 0
 6-311+G(2d,p)
 ****
 1  2  13  14  15  16  17  18  19  20  21  22  24  25 0
 3-21G
 ****
 27  28  29  32  34  39  40  41  42  43  44  45  46  47  48  49 0
 3-21G
 ****


