%nproc=1
%NoSave
%Mem=1900MB
#P OB98/GEN NMR

erre ene a

0 1
  C     -284.799     408.835      33.945
  O     -284.464     407.438      33.865
  P     -283.811     406.614      35.079
  C     -286.018     405.609      35.976
  O     -284.750     405.350      35.388
  C     -286.246     404.693      37.189
  O     -287.401     405.145      37.947
  C     -286.563     403.242      36.861
  O     -285.429     402.530      36.416
  C     -287.132     402.749      38.188
  O     -286.087     402.356      39.089
  C     -287.846     404.010      38.727
  N     -289.296     403.899      38.710
  C     -289.859     402.930      39.541
  O     -289.142     402.168      40.184
  N     -291.233     402.847      39.609
  C     -291.962     403.589      38.840
  N     -293.315     403.463      38.962
  C     -291.400     404.517      37.846
  C     -290.074     404.626      37.834
  O     -283.508     407.444      36.283
  O     -282.477     405.964      34.477
  H     -281.834     405.818      35.193
  H     -286.524     402.098      39.927
  H     -292.052     405.086      37.188
  H     -289.578     405.302      37.147
  H     -287.519     404.225      39.754
  H     -287.798     401.887      38.067
  H     -287.347     403.213      36.092
  H     -285.358     404.753      37.842
  H     -293.668     402.829      39.660
  H     -286.799     405.407      35.235
  H     -293.971     404.014      38.426
  H     -286.074     406.664      36.269
  P     -285.548     401.765      35.011
  C     -285.322     403.352      32.969
  O     -284.668     402.564      33.943
  O     -287.061     402.051      34.555
  O     -285.276     400.300      35.081
  H     -287.434     401.255      34.135
  H     -284.658     404.162      32.664
  H     -286.257     403.780      33.355
  H     -285.551     402.735      32.088
  H     -285.218     409.155      33.014
  H     -283.916     409.402      34.152
  H     -285.512     408.987      34.728

 3  4  5  6  7  8  9  10  11  12  13  24  27  28  29  30  32 0
 6-311+G(2d,p)
 ****
 34  35 0
 6-311+G(2d,p)
 ****
 1  2  14  15  16  17  18  19  20  21  22  23  25  26 0
 3-21G
 ****
 31  33  36  37  38  39  40  41  42  43  44  45  46 0
 3-21G
 ****


