%nproc=1
%NoSave
%Mem=1900MB
#P OB98/GEN NMR

erre ene a

0 1
  C       22.468      75.136     941.064
  O       23.792      75.595     940.891
  H       21.795      75.994     941.086
  H       22.380      74.589     942.010
  H       22.177      74.485     940.227
  P       24.944      74.472     940.851
  C       25.280      74.941     943.383
  O       25.116      73.962     942.368
  C       26.306      74.465     944.417
  O       25.921      73.192     944.964
  C       27.719      74.303     943.873
  O       28.413      75.549     943.841
  C       28.319      73.324     944.879
  O       28.738      74.004     946.078
  C       27.122      72.402     945.162
  N       29.582      68.167     943.907
  C       29.891      69.127     944.857
  N       31.055      68.965     945.527
  N       29.131      70.163     945.106
  C       28.021      70.213     944.338
  C       27.602      69.315     943.375
  C       28.432      68.154     943.124
  O       28.184      67.236     942.353
  N       26.409      69.705     942.813
  C       26.127      70.852     943.408
  N       27.086      71.215     944.324
  O       26.278      75.316     940.596
  O       24.759      73.403     939.829
  H       29.414      74.659     945.857
  H       26.914      74.767     940.095
  H       30.194      67.385     943.778
  H       25.249      71.456     943.209
  H       27.117      72.051     946.205
  H       29.192      72.817     944.476
  H       31.805      68.400     945.155
  H       27.695      73.835     942.872
  H       31.294      69.674     946.205
  H       26.292      75.198     945.246
  H       24.319      75.109     943.883
  H       25.617      75.883     942.924
  P       29.863      75.573     943.172
  C       31.522      74.875     945.046
  O       30.738      74.465     943.944
  O       30.487      76.956     943.682
  O       29.870      75.478     941.676
  H       31.257      77.208     943.130
  H       32.041      74.030     945.449
  H       30.888      75.296     945.798
  H       32.231      75.609     944.726

 6  7  8  9  10  11  12  13  14  15  26  29  33  34 0
 6-311+G(2d,p)
 ****
 36  38  39  40  41 0
 6-311+G(2d,p)
 ****
 1  2  3  4  5  16  17  18  19  20  21  22  23  24  25 0
 3-21G
 ****
 27  28  30  31  32  35  37  42  43  44  45  46  47 0
 3-21G
 ****
 48  49 0
 3-21G
 ****


