%nproc=1
%NoSave
%Mem=1900MB
#P OB98/GEN NMR

erre ene a

0 1
  C      291.537     -49.513    -226.108
  O      292.860     -49.059    -225.910
  H      290.938     -48.682    -226.488
  H      291.100     -49.856    -225.166
  H      291.518     -50.320    -226.844
  P      293.918     -50.066    -225.242
  C      294.508     -51.348    -227.415
  O      293.844     -51.385    -226.161
  C      294.464     -52.725    -228.074
  O      294.766     -52.635    -229.482
  C      295.470     -53.731    -227.525
  O      295.119     -54.242    -226.249
  C      295.406     -54.790    -228.614
  O      294.201     -55.561    -228.465
  C      295.345     -53.908    -229.887
  N      296.656     -53.702    -230.502
  C      297.011     -54.584    -231.529
  O      296.242     -55.479    -231.882
  N      298.248     -54.454    -232.115
  C      299.065     -53.541    -231.696
  N      300.297     -53.486    -232.276
  C      298.726     -52.581    -230.630
  C      297.522     -52.719    -230.077
  O      293.770     -50.302    -223.773
  O      295.347     -49.471    -225.649
  H      294.285     -56.068    -227.639
  H      296.037     -50.053    -225.249
  H      299.447     -51.841    -230.312
  H      297.205     -52.061    -229.275
  H      294.670     -54.346    -230.630
  H      296.246     -55.489    -228.588
  H      296.481     -53.306    -227.511
  H      293.434     -53.099    -227.991
  H      300.510     -54.186    -232.974
  H      295.541     -51.027    -227.244
  H      301.070     -53.004    -231.829
  H      294.018     -50.632    -228.081
  P      296.087     -55.341    -225.588
  C      298.136     -53.757    -225.317
  O      297.590     -54.904    -225.943
  O      295.840     -56.630    -226.505
  O      295.857     -55.617    -224.135
  H      295.156     -57.210    -226.118
  H      299.138     -53.606    -225.661
  H      298.140     -53.898    -224.256
  H      297.542     -52.901    -225.561

 6  7  8  9  10  11  12  13  14  15  16  26  30  31  32  33  35 0
 6-311+G(2d,p)
 ****
 37  38 0
 6-311+G(2d,p)
 ****
 1  2  3  4  5  17  18  19  20  21  22  23  24  25 0
 3-21G
 ****
 27  28  29  34  36  39  40  41  42  43  44  45  46 0
 3-21G
 ****


