%nproc=1
%NoSave
%Mem=1900MB
#P OB98/GEN NMR

erre ene a

0 1
  C      508.373    -196.858     -84.395
  O      507.007    -197.043     -83.973
  P      506.689    -198.100     -82.800
  C      504.748    -199.196     -84.176
  O      505.171    -198.599     -82.958
  C      503.255    -198.934     -84.394
  O      503.010    -197.524     -84.612
  C      502.667    -199.634     -85.618
  O      502.440    -201.009     -85.381
  C      501.382    -198.838     -85.829
  O      500.330    -199.314     -84.967
  C      501.817    -197.411     -85.422
  N      502.032    -196.539     -86.574
  C      500.936    -195.794     -86.997
  O      499.822    -195.885     -86.487
  N      501.157    -194.952     -88.051
  C      502.323    -194.838     -88.760
  O      502.455    -194.081     -89.718
  C      503.419    -195.713     -88.316
  C      503.229    -196.515     -87.267
  O      506.595    -197.149     -81.513
  O      507.713    -199.168     -82.594
  H      499.606    -198.662     -85.026
  H      506.841    -197.650     -80.713
  H      500.386    -194.377     -88.357
  H      504.356    -195.672     -88.865
  H      504.030    -197.164     -86.927
  H      501.059    -196.958     -84.772
  H      501.008    -198.909     -86.855
  H      503.327    -199.486     -86.477
  H      502.716    -199.235     -83.485
  H      504.919    -200.275     -84.132
  H      505.337    -198.778     -85.000
  P      502.868    -202.017     -86.566
  C      500.652    -203.317     -87.083
  O      501.896    -203.286     -86.407
  O      504.293    -202.523     -86.035
  O      502.892    -201.366     -87.908
  H      504.327    -202.575     -85.063
  H      500.707    -202.801     -88.051
  H      499.890    -202.845     -86.463
  H      500.375    -204.364     -87.258
  H      508.409    -196.127     -85.176
  H      508.763    -197.786     -84.757
  H      508.960    -196.523     -83.566

 3  4  5  6  7  8  9  10  11  12  13  23  28  29  30  31  32 0
 6-311+G(2d,p)
 ****
 33  34 0
 6-311+G(2d,p)
 ****
 1  2  14  15  16  17  18  19  20  21  22  24  25  26 0
 3-21G
 ****
 27  35  36  37  38  39  40  41  42  43  44  45 0
 3-21G
 ****


