%nproc=1
%NoSave
%Mem=1900MB
#P OB98/GEN NMR

erre ene a

0 1
  C     -522.767      90.512     -15.844
  O     -523.868      91.330     -16.210
  P     -523.573      92.783     -16.809
  C     -522.927      95.109     -15.835
  O     -523.087      93.721     -15.596
  C     -523.109      95.898     -14.538
  O     -524.501      95.813     -14.110
  C     -522.240      95.403     -13.375
  O     -521.881      96.538     -12.582
  C     -523.204      94.524     -12.599
  O     -522.796      94.292     -11.258
  C     -524.489      95.340     -12.745
  N     -525.694      94.577     -12.425
  C     -526.496      95.047     -11.395
  O     -526.254      96.060     -10.740
  N     -527.584      94.268     -11.083
  C     -527.882      93.053     -11.624
  O     -528.803      92.354     -11.216
  C     -526.999      92.607     -12.714
  C     -525.962      93.375     -13.060
  O     -525.030      93.339     -17.160
  O     -522.664      92.798     -17.999
  H     -521.922      93.860     -11.293
  H     -525.209      93.245     -18.111
  H     -528.184      94.600     -10.346
  H     -527.224      91.657     -13.181
  H     -525.282      93.060     -13.845
  H     -524.449      96.228     -12.103
  H     -523.295      93.548     -13.095
  H     -521.343      94.863     -13.696
  H     -522.899      96.959     -14.743
  H     -523.674      95.436     -16.562
  H     -521.935      95.296     -16.270
  P     -520.447      96.523     -11.848
  C     -520.107      97.367      -9.396
  O     -520.740      96.458     -10.274
  O     -519.974      98.033     -12.089
  O     -519.502      95.503     -12.398
  H     -520.687      98.681     -11.948
  H     -519.966      98.346      -9.866
  H     -519.140      96.966      -9.099
  H     -520.730      97.486      -8.507
  H     -523.127      89.579     -15.463
  H     -522.190      91.006     -15.090
  H     -522.154      90.334     -16.703

 3  4  5  6  7  8  9  10  11  12  13  23  28  29  30  31  32 0
 6-311+G(2d,p)
 ****
 33  34 0
 6-311+G(2d,p)
 ****
 1  2  14  15  16  17  18  19  20  21  22  24  25  26 0
 3-21G
 ****
 27  35  36  37  38  39  40  41  42  43  44  45 0
 3-21G
 ****


