%nproc=1
%NoSave
%Mem=1900MB
#P OB98/GEN NMR

erre ene a

0 1
  C      245.343      63.960      55.309
  O      246.355      64.076      56.290
  H      245.356      64.860      54.688
  H      244.361      63.870      55.782
  H      245.535      63.090      54.675
  P      246.483      62.862      57.334
  C      248.448      61.565      56.289
  O      248.044      62.477      57.303
  C      249.961      61.660      56.055
  O      250.256      62.957      55.481
  C      250.780      61.520      57.338
  O      251.968      60.777      57.059
  C      251.148      62.952      57.687
  O      252.338      63.037      58.471
  C      251.254      63.590      56.303
  N      253.534      68.111      56.940
  C      254.026      66.864      56.802
  N      253.343      65.710      56.619
  C      252.025      65.948      56.536
  C      251.372      67.166      56.661
  C      252.191      68.287      56.880
  N      251.697      69.559      57.048
  N      250.004      66.996      56.560
  C      249.833      65.698      56.368
  N      251.023      65.025      56.360
  O      245.539      61.729      57.131
  O      246.348      63.629      58.735
  H      253.086      62.733      57.918
  H      246.873      64.448      58.748
  H      255.109      66.775      56.851
  H      248.874      65.203      56.239
  H      252.238      63.434      55.843
  H      250.333      63.413      58.264
  H      250.224      61.037      58.143
  H      250.248      60.907      55.311
  H      247.919      61.784      55.353
  H      252.353      70.315      57.185
  H      250.700      69.716      56.989
  H      248.179      60.555      56.612
  P      252.314      59.514      57.982
  C      250.964      57.707      56.712
  O      252.258      58.188      57.073
  O      251.583      59.433      59.280
  O      253.895      59.685      58.226
  H      254.099      59.411      59.141
  H      251.065      56.827      56.112
  H      250.446      58.460      56.156
  H      250.411      57.473      57.597

 6  7  8  9  10  11  12  13  14  15  25  28  32  33  34  35 0
 6-311+G(2d,p)
 ****
 36  39  40 0
 6-311+G(2d,p)
 ****
 1  2  3  4  5  16  17  18  19  20  21  22  23  24 0
 3-21G
 ****
 26  27  29  30  31  37  38  41  42  43  44  45  46  47 0
 3-21G
 ****
 48 0
 3-21G
 ****


