%nproc=1
%NoSave
%Mem=1900MB
#P OB98/GEN NMR

erre ene a

0 1
  C      275.136     602.396    -661.812
  O      276.521     602.020    -661.805
  P      276.841     600.446    -661.673
  C      279.440     600.532    -661.529
  O      278.208     600.301    -660.853
  C      280.608     600.486    -660.553
  O      280.590     601.618    -659.661
  C      280.615     599.262    -659.643
  O      281.130     598.119    -660.309
  C      281.561     599.719    -658.544
  O      282.932     599.508    -658.960
  C      281.258     601.228    -658.443
  N      281.018     603.353    -653.854
  C      282.089     603.196    -654.691
  N      283.274     603.726    -654.263
  N      282.022     602.606    -655.859
  C      280.781     602.169    -656.167
  C      279.636     602.257    -655.404
  C      279.729     602.896    -654.116
  O      278.812     603.028    -653.303
  N      278.562     601.714    -656.053
  C      279.041     601.309    -657.212
  N      280.394     601.553    -657.328
  O      277.267     600.040    -663.166
  O      275.690     599.633    -661.177
  H      283.023     598.558    -659.178
  H      277.076     599.097    -663.329
  H      281.121     603.825    -652.963
  H      278.470     600.846    -658.005
  H      282.174     601.820    -658.366
  H      281.430     599.169    -657.608
  H      283.375     604.253    -653.421
  H      279.618     599.088    -659.220
  H      284.059     603.646    -654.895
  H      281.542     600.519    -661.139
  H      279.414     601.500    -662.021
  H      279.549     599.781    -662.321
  P      280.063     596.979    -660.724
  C      281.597     595.738    -662.422
  O      280.954     595.726    -661.165
  O      279.474     597.538    -662.103
  O      279.006     596.722    -659.715
  H      278.566     597.214    -662.234
  H      282.052     596.717    -662.617
  H      280.867     595.517    -663.205
  H      282.385     594.982    -662.435
  H      275.055     603.459    -661.904
  H      274.676     602.081    -660.899
  H      274.644     601.928    -662.639

 3  4  5  6  7  8  9  10  11  12  23  26  30  31  33  0
 6-311+G(2d,p)
 ****
 35  36  37  38 0
 6-311+G(2d,p)
 ****
 1  2  13  14  15  16  17  18  19  20  21  22  24  25  27  28  29 0
 3-21G
 ****
 32  34  39  40  41  42  43  44  45  46  47  48  49 0
 3-21G
 ****


