%nproc=1
%NoSave
%Mem=1900MB
#P OB98/GEN NMR

erre ene a

0 1
  C      716.902    -648.607    -919.925
  O      716.478    -649.895    -920.367
  P      714.996    -650.390    -919.991
  C      715.587    -651.618    -917.795
  O      715.108    -651.739    -919.144
  C      715.738    -653.011    -917.151
  O      714.412    -653.609    -917.003
  C      716.569    -654.034    -917.962
  O      717.970    -654.077    -917.750
  C      715.989    -655.338    -917.449
  O      716.656    -655.705    -916.213
  C      714.528    -655.036    -917.185
  N      712.801    -659.090    -919.765
  C      713.670    -658.982    -918.745
  N      714.090    -657.858    -918.115
  C      713.481    -656.761    -918.635
  C      712.556    -656.728    -919.667
  C      712.221    -657.977    -920.258
  N      711.342    -658.079    -921.304
  N      712.170    -655.435    -919.915
  C      712.842    -654.717    -919.061
  N      713.642    -655.469    -918.241
  O      714.016    -650.403    -921.114
  O      714.562    -649.314    -918.872
  H      716.356    -656.595    -915.990
  H      713.597    -649.120    -918.977
  H      714.108    -659.910    -918.392
  H      712.794    -653.620    -918.992
  H      714.164    -655.514    -916.256
  H      716.177    -656.168    -918.145
  H      716.349    -653.924    -919.030
  H      716.177    -652.900    -916.160
  H      714.894    -651.012    -917.204
  H      711.175    -658.997    -921.707
  H      710.944    -657.244    -921.712
  H      716.528    -651.070    -917.849
  P      718.981    -653.217    -918.667
  C      718.711    -654.693    -920.802
  O      719.547    -654.242    -919.767
  O      720.032    -652.468    -917.910
  O      717.983    -652.294    -919.507
  H      717.434    -652.777    -920.160
  H      719.329    -655.192    -921.563
  H      718.182    -653.861    -921.280
  H      717.985    -655.417    -920.413
  H      717.904    -648.429    -920.254
  H      716.865    -648.567    -918.856
  H      716.254    -647.859    -920.333

 3  4  5  6  7  8  9  10  11  12  22  25  29  30  31  32 0
 6-311+G(2d,p)
 ****
 33  36  37 0
 6-311+G(2d,p)
 ****
 1  2  13  14  15  16  17  18  19  20  21  23  24  26 0
 3-21G
 ****
 27  28  34  35  38  39  40  41  42  43  44  45  46  47  48 0
 3-21G
 ****


