%nproc=1
%NoSave
%Mem=1900MB
#P OB98/GEN NMR

erre ene a

0 1
  C      466.357     -74.584     765.374
  O      467.013     -73.423     764.912
  P      468.458     -73.518     764.230
  C      468.514     -70.968     763.946
  O      469.208     -72.121     764.422
  C      468.526     -69.858     765.003
  O      469.866     -69.612     765.470
  C      468.021     -68.515     764.493
  O      466.623     -68.503     764.311
  C      468.545     -67.587     765.585
  O      467.678     -67.601     766.726
  C      469.905     -68.232     765.924
  N      471.030     -67.508     765.348
  C      471.960     -67.010     766.260
  O      471.777     -67.121     767.469
  N      473.091     -66.389     765.766
  C      473.196     -66.174     764.490
  N      474.353     -65.605     764.050
  C      472.150     -66.541     763.512
  C      471.113     -67.220     764.005
  O      468.467     -74.052     762.832
  O      469.279     -74.491     765.201
  H      469.699     -75.191     764.670
  H      467.687     -68.518     767.072
  H      472.262     -66.284     762.473
  H      470.309     -67.557     763.358
  H      470.032     -68.285     767.012
  H      468.614     -66.545     765.245
  H      468.520     -68.277     763.542
  H      467.920     -70.193     765.855
  H      475.059     -65.379     764.749
  H      467.479     -71.244     763.718
  H      474.678     -65.693     763.093
  H      468.988     -70.622     763.015
  P      466.076     -67.982     762.890
  C      463.817     -69.166     763.363
  O      464.478     -67.978     762.970
  O      466.415     -69.202     761.905
  O      466.699     -66.711     762.412
  H      466.674     -68.854     761.032
  H      462.808     -68.909     763.696
  H      464.350     -69.662     764.182
  H      463.751     -69.843     762.506
  H      465.411     -74.315     765.795
  H      466.957     -75.059     766.121
  H      466.206     -75.257     764.556

 3  4  5  6  7  8  9  10  11  12  13  24  27  28  29  30  32 0
 6-311+G(2d,p)
 ****
 34  35 0
 6-311+G(2d,p)
 ****
 1  2  14  15  16  17  18  19  20  21  22  23  25  26 0
 3-21G
 ****
 31  33  36  37  38  39  40  41  42  43  44  45  46 0
 3-21G
 ****


