%nproc=1
%NoSave
%Mem=1900MB
#P OB98/GEN NMR

erre ene a

0 1
  C      -79.659     203.585      44.449
  O      -81.046     203.715      44.683
  H      -79.119     203.507      45.397
  H      -79.484     202.677      43.866
  H      -79.292     204.445      43.882
  P      -81.499     204.937      45.618
  C      -82.998     203.602      47.257
  O      -81.786     204.316      47.070
  C      -83.174     203.238      48.726
  O      -82.086     202.400      49.166
  C      -83.178     204.426      49.681
  O      -84.431     205.095      49.691
  C      -82.907     203.724      51.003
  O      -84.128     203.149      51.505
  C      -81.931     202.610      50.594
  N      -78.594     204.314      54.104
  C      -79.932     204.123      54.150
  N      -80.754     203.680      53.178
  C      -80.064     203.402      52.060
  C      -78.701     203.546      51.864
  C      -77.951     204.032      52.948
  N      -76.591     204.238      52.885
  N      -78.346     203.150      50.593
  C      -79.474     202.773      50.027
  N      -80.543     202.914      50.873
  O      -82.964     205.300      45.077
  O      -80.599     206.127      45.596
  H      -84.415     202.487      50.849
  H      -83.092     206.265      45.135
  H      -80.407     204.357      55.099
  H      -79.564     202.390      49.018
  H      -82.177     201.661      51.083
  H      -82.520     204.393      51.774
  H      -82.355     205.115      49.461
  H      -84.102     202.660      48.821
  H      -82.975     202.684      46.660
  H      -76.086     204.396      53.741
  H      -76.116     204.016      52.016
  H      -83.831     204.226      46.916
  P      -84.518     206.489      50.485
  C      -85.859     205.108      52.224
  O      -84.863     206.099      52.002
  O      -85.886     207.125      49.949
  O      -83.362     207.407      50.283
  H      -85.856     208.098      50.037
  H      -85.981     204.954      53.276
  H      -85.559     204.191      51.761
  H      -86.787     205.434      51.802

 6  7  8  9  10  11  12  13  14  15  25  28  32  33  34  35 0
 6-311+G(2d,p)
 ****
 36  39  40 0
 6-311+G(2d,p)
 ****
 1  2  3  4  5  16  17  18  19  20  21  22  23  24 0
 3-21G
 ****
 26  27  29  30  31  37  38  41  42  43  44  45  46  47  48 0
 3-21G
 ****


