%nproc=1
%NoSave
%Mem=1900MB
#P OB98/GEN NMR

erre ene a

0 1
  C      137.528     -69.334     -86.478
  O      137.014     -69.527     -85.175
  H      136.878     -69.853     -87.189
  H      138.536     -69.748     -86.559
  H      137.539     -68.271     -86.730
  P      137.813     -68.897     -83.939
  C      138.423     -71.224     -83.000
  O      138.908     -69.988     -83.511
  C      137.773     -71.015     -81.636
  O      137.325     -72.271     -81.093
  C      138.697     -70.400     -80.586
  O      138.767     -68.992     -80.745
  C      137.980     -70.807     -79.311
  O      136.834     -69.958     -79.108
  C      137.520     -72.236     -79.652
  N      139.399     -75.035     -75.858
  C      138.539     -73.955     -75.819
  N      138.146     -73.543     -74.594
  N      138.111     -73.326     -76.883
  C      138.638     -73.803     -78.035
  C      139.513     -74.854     -78.199
  C      139.926     -75.582     -77.018
  O      140.669     -76.560     -77.010
  N      139.902     -74.984     -79.508
  C      139.222     -74.048     -80.141
  N      138.446     -73.296     -79.290
  O      136.976     -68.398     -82.801
  O      138.695     -67.734     -84.593
  H      136.223     -70.117     -79.852
  H      138.225     -66.878     -84.567
  H      139.701     -75.472     -75.004
  H      139.250     -73.873     -81.210
  H      136.560     -72.481     -79.184
  H      138.609     -70.719     -78.423
  H      138.556     -73.887     -73.739
  H      139.689     -70.866     -80.602
  H      137.562     -72.716     -74.545
  H      136.879     -70.392     -81.783
  H      139.279     -71.904     -82.915
  H      137.697     -71.665     -83.690
  P      140.175     -68.217     -80.759
  C      139.870     -67.530     -78.284
  O      140.671     -68.211     -79.234
  O      140.146     -66.878     -81.412
  O      141.188     -69.251     -81.432
  H      141.180     -69.212     -82.421
  H      140.320     -67.609     -77.316
  H      138.894     -67.968     -78.260
  H      139.791     -66.499     -78.558

 6  7  8  9  10  11  12  13  14  15  26  29  33  34 0
 6-311+G(2d,p)
 ****
 36  38  39  40  41 0
 6-311+G(2d,p)
 ****
 1  2  3  4  5  16  17  18  19  20  21  22  23  24  25 0
 3-21G
 ****
 27  28  30  31  32  35  37  42  43  44  45  46  47 0
 3-21G
 ****
 48  49 0
 3-21G
 ****


