%nproc=1
%NoSave
%Mem=1900MB
#P OB98/GEN NMR

erre ene a

0 1
  C      162.276      25.520    -899.170
  O      161.148      25.630    -898.310
  P      160.794      27.048    -897.630
  C      161.453      26.242    -895.290
  O      161.689      27.206    -896.320
  C      162.502      26.384    -894.200
  O      163.795      25.959    -894.670
  C      162.700      27.811    -893.690
  O      161.642      28.195    -892.830
  C      164.067      27.709    -893.020
  O      163.940      27.167    -891.700
  C      164.795      26.710    -893.950
  N      169.679      27.269    -895.290
  C      169.110      26.682    -894.230
  N      167.798      26.603    -893.920
  C      167.056      27.251    -894.840
  C      167.507      27.933    -895.960
  C      168.894      27.907    -896.200
  N      169.487      28.453    -897.310
  N      166.454      28.483    -896.650
  C      165.381      28.157    -895.940
  N      165.696      27.353    -894.890
  O      159.344      27.315    -897.460
  O      161.440      28.120    -898.650
  H      164.850      26.963    -891.390
  H      160.738      28.692    -899.010
  H      169.794      26.185    -893.540
  H      164.365      28.468    -896.170
  H      165.383      25.980    -893.370
  H      164.569      28.669    -892.930
  H      162.774      28.503    -894.550
  H      162.218      25.724    -893.360
  H      161.504      25.246    -895.730
  H      170.461      28.255    -897.450
  H      168.904      28.651    -898.130
  H      160.445      26.399    -894.880
  P      161.346      29.752    -892.590
  C      161.400      29.468    -890.030
  O      161.956      30.117    -891.150
  O      159.928      30.188    -892.810
  O      162.338      30.490    -893.610
  H      161.951      31.330    -893.930
  H      160.438      29.923    -889.780
  H      162.080      29.553    -889.190
  H      161.247      28.396    -890.250
  H      162.356      24.514    -899.526
  H      163.163      25.778    -898.630
  H      162.158      26.185    -900.000

 3  4  5  6  7  8  9  10  11  12  22  25  29  30  31  32 0
 6-311+G(2d,p)
 ****
 33  36  37 0
 6-311+G(2d,p)
 ****
 1  2  13  14  15  16  17  18  19  20  21  23  24  26 0
 3-21G
 ****
 27  28  34  35  38  39  40  41  42  43  44  45  46  47  48 0
 3-21G
 ****


