%nproc=1
%NoSave
%Mem=1900MB
#P OB98/GEN NMR

erre ene a

0 1
  C     -484.717     -88.838    -269.829
  O     -484.266     -88.834    -271.185
  P     -485.230     -88.448    -272.411
  C     -483.813     -86.476    -273.258
  O     -485.068     -86.881    -272.719
  C     -483.657     -84.939    -273.250
  O     -483.781     -84.432    -271.887
  C     -482.309     -84.434    -273.764
  O     -482.297     -84.434    -275.179
  C     -482.263     -83.039    -273.123
  O     -483.033     -82.104    -273.882
  C     -482.900     -83.297    -271.749
  N     -482.246     -83.428    -266.680
  C     -483.339     -83.220    -267.441
  N     -483.430     -83.195    -268.801
  C     -482.230     -83.439    -269.356
  C     -481.031     -83.665    -268.707
  C     -481.053     -83.647    -267.303
  N     -479.933     -83.847    -266.532
  N     -480.010     -83.852    -269.634
  C     -480.602     -83.766    -270.798
  N     -481.945     -83.514    -270.691
  O     -486.652     -88.892    -272.240
  O     -484.567     -89.152    -273.690
  H     -482.967     -81.245    -273.434
  H     -485.256     -89.347    -274.348
  H     -484.262     -83.053    -266.900
  H     -480.087     -83.871    -271.758
  H     -483.536     -82.445    -271.450
  H     -481.246     -82.650    -273.055
  H     -481.498     -85.052    -273.353
  H     -484.482     -84.512    -273.821
  H     -483.754     -86.824    -274.303
  H     -480.020     -83.791    -265.530
  H     -479.029     -83.963    -266.978
  H     -483.012     -86.938    -272.680
  P     -481.622     -85.665    -275.971
  C     -483.847     -86.260    -277.113
  O     -482.804     -86.717    -276.294
  O     -480.405     -86.264    -275.325
  O     -481.289     -85.066    -277.400
  H     -480.505     -85.525    -277.767
  H     -484.537     -85.643    -276.533
  H     -484.379     -87.108    -277.534
  H     -483.449     -85.641    -277.939
  H     -483.911     -89.124    -269.186
  H     -485.522     -89.534    -269.723
  H     -485.055     -87.858    -269.563

 3  4  5  6  7  8  9  10  11  12  22  25  29  30  31  32 0
 6-311+G(2d,p)
 ****
 33  36  37 0
 6-311+G(2d,p)
 ****
 1  2  13  14  15  16  17  18  19  20  21  23  24  26 0
 3-21G
 ****
 27  28  34  35  38  39  40  41  42  43  44  45  46  47  48 0
 3-21G
 ****


