%nproc=1
%NoSave
%Mem=1900MB
#P OB98/GEN NMR

erre ene a

0 1
  C     -414.846     624.408     559.682
  O     -415.510     623.667     560.682
  H     -415.596     624.756     558.957
  H     -414.125     623.782     559.153
  H     -414.349     625.280     560.115
  P     -414.648     622.996     561.858
  C     -413.692     623.813     564.097
  O     -414.565     624.112     563.011
  C     -414.073     624.597     565.351
  O     -414.018     626.025     565.065
  C     -415.499     624.283     565.862
  O     -415.458     624.072     567.274
  C     -416.274     625.559     565.560
  O     -417.415     625.730     566.397
  C     -415.171     626.614     565.704
  N     -415.546     627.889     565.108
  C     -415.154     629.040     565.802
  O     -414.530     628.939     566.855
  N     -415.538     630.263     565.324
  C     -416.280     630.331     564.265
  N     -416.657     631.581     563.860
  C     -416.744     629.142     563.511
  C     -416.338     627.967     563.983
  O     -413.336     622.430     561.428
  O     -415.621     621.889     562.501
  H     -417.889     624.878     566.458
  H     -415.074     621.219     562.968
  H     -417.375     629.264     562.637
  H     -416.625     627.041     563.498
  H     -414.931     626.784     566.764
  H     -416.621     625.532     564.516
  H     -415.948     623.415     565.375
  H     -413.327     624.408     566.124
  H     -416.321     632.371     564.411
  H     -412.664     624.049     563.792
  H     -417.251     631.762     563.066
  H     -413.757     622.739     564.315
  P     -415.558     622.547     567.757
  C     -414.092     620.579     566.885
  O     -414.119     621.850     567.505
  O     -416.513     621.869     566.669
  O     -416.103     622.386     569.146
  H     -417.371     621.639     567.070
  H     -413.078     620.251     566.787
  H     -414.540     620.645     565.916
  H     -414.637     619.879     567.483

 6  7  8  9  10  11  12  13  14  15  16  26  30  31  32  33  35 0
 6-311+G(2d,p)
 ****
 37  38 0
 6-311+G(2d,p)
 ****
 1  2  3  4  5  17  18  19  20  21  22  23  24  25 0
 3-21G
 ****
 27  28  29  34  36  39  40  41  42  43  44  45  46 0
 3-21G
 ****


