%nproc=1
%NoSave
%Mem=1900MB
#P OB98/GEN NMR

erre ene a

0 1
  C     -216.987     520.132     297.417
  O     -217.875     521.237     297.457
  P     -217.658     522.526     296.516
  C     -215.691     524.185     296.232
  O     -216.327     523.233     297.067
  C     -214.478     524.796     296.952
  O     -213.463     523.771     297.108
  C     -213.830     525.981     296.200
  O     -213.360     526.900     297.201
  C     -212.667     525.331     295.479
  O     -211.659     526.255     295.133
  C     -212.245     524.275     296.509
  N     -211.475     523.185     295.908
  C     -210.114     523.120     296.204
  O     -209.568     523.965     296.922
  N     -209.371     522.083     295.672
  C     -209.922     521.246     294.851
  N     -209.158     520.211     294.399
  C     -211.340     521.354     294.425
  C     -212.045     522.314     295.011
  O     -218.839     523.430     296.407
  O     -217.161     521.927     295.126
  H     -212.013     526.866     294.458
  H     -217.909     521.651     294.528
  H     -211.745     520.644     293.721
  H     -213.098     522.448     294.773
  H     -211.662     524.736     297.314
  H     -213.024     524.858     294.558
  H     -214.532     526.493     295.538
  H     -214.788     525.102     297.955
  H     -208.256     520.082     294.844
  H     -216.403     524.980     296.013
  H     -209.590     519.370     294.036
  H     -215.390     523.711     295.295
  P     -213.454     528.475     296.888
  C     -212.543     530.087     295.064
  O     -212.630     528.763     295.539
  O     -212.485     529.093     298.010
  O     -214.810     529.098     296.997
  H     -212.748     530.011     298.192
  H     -211.940     530.094     294.146
  H     -212.052     530.732     295.801
  H     -213.544     530.484     294.833
  H     -217.310     519.389     298.116
  H     -216.001     520.458     297.674
  H     -216.980     519.716     296.431

 3  4  5  6  7  8  9  10  11  12  13  23  27  28  29  30  32 0
 6-311+G(2d,p)
 ****
 34  35 0
 6-311+G(2d,p)
 ****
 1  2  14  15  16  17  18  19  20  21  22  24  25  26 0
 3-21G
 ****
 31  33  36  37  38  39  40  41  42  43  44  45  46 0
 3-21G
 ****


