%nproc=1
%NoSave
%Mem=1900MB
#P OB98/GEN NMR

erre ene a

0 1
  C      706.765     444.262    -562.345
  O      707.209     445.346    -563.173
  P      706.120     446.208    -563.980
  C      707.207     448.528    -564.508
  O      706.844     447.234    -564.975
  C      708.644     448.559    -563.987
  O      709.562     448.098    -565.024
  C      709.132     449.942    -563.542
  O      710.053     449.734    -562.452
  C      709.875     450.441    -564.770
  O      710.790     451.487    -564.484
  C      710.542     449.138    -565.224
  N      710.997     449.152    -566.612
  C      712.068     449.985    -566.938
  O      712.614     450.752    -566.149
  N      712.483     449.937    -568.248
  C      711.925     449.182    -569.248
  O      712.327     449.210    -570.403
  C      710.783     448.349    -568.853
  C      710.386     448.371    -567.579
  O      705.561     447.186    -562.838
  O      704.995     445.421    -564.579
  H      710.311     452.151    -563.950
  H      704.590     447.215    -562.873
  H      713.262     450.522    -568.492
  H      710.327     447.740    -569.612
  H      709.550     447.754    -567.264
  H      711.386     448.907    -564.571
  H      709.155     450.818    -565.502
  H      708.323     450.600    -563.226
  H      708.720     447.839    -563.158
  H      706.523     448.818    -563.693
  H      707.081     449.248    -565.325
  P      709.736     450.440    -561.042
  C      710.935     448.530    -559.725
  O      710.822     449.905    -559.997
  O      708.410     449.651    -560.618
  O      709.546     451.918    -561.116
  H      708.481     448.688    -560.763
  H      710.851     447.927    -560.629
  H      710.171     448.232    -559.015
  H      711.920     448.340    -559.284
  H      707.610     443.797    -561.883
  H      706.247     443.544    -562.945
  H      706.107     444.637    -561.589

 3  4  5  6  7  8  9  10  11  12  13  23  28  29  30  31  32 0
 6-311+G(2d,p)
 ****
 33  34 0
 6-311+G(2d,p)
 ****
 1  2  14  15  16  17  18  19  20  21  22  24  25  26 0
 3-21G
 ****
 27  35  36  37  38  39  40  41  42  43  44  45 0
 3-21G
 ****


