%nproc=1
%NoSave
%Mem=1900MB
#P OB98/GEN NMR

erre ene a

0 1
  C      436.076    -774.848     -18.563
  O      436.965    -774.036     -17.814
  P      438.329    -773.573     -18.527
  C      440.298    -774.834     -19.672
  O      439.075    -774.931     -18.947
  C      441.417    -775.584     -18.934
  O      441.085    -776.980     -18.833
  C      442.762    -775.529     -19.643
  O      443.463    -774.315     -19.374
  C      443.472    -776.705     -18.976
  O      443.955    -776.331     -17.681
  C      442.333    -777.718     -18.847
  N      444.731    -781.702     -20.979
  C      445.058    -780.915     -19.946
  N      444.375    -779.864     -19.452
  C      443.252    -779.635     -20.166
  C      442.820    -780.342     -21.279
  C      443.600    -781.438     -21.680
  N      443.249    -782.266     -22.727
  N      441.626    -779.816     -21.745
  C      441.357    -778.826     -20.913
  N      442.297    -778.687     -19.942
  O      439.204    -773.032     -17.307
  O      438.172    -772.563     -19.606
  H      443.172    -776.166     -17.123
  H      439.888    -772.408     -17.636
  H      445.993    -781.159     -19.447
  H      440.484    -778.189     -20.990
  H      442.389    -778.294     -17.913
  H      444.333    -777.050     -19.557
  H      442.670    -775.719     -20.711
  H      441.486    -775.158     -17.927
  H      440.569    -773.775     -19.763
  H      443.767    -783.118     -22.836
  H      442.315    -782.174     -23.101
  H      440.151    -775.255     -20.678
  P      444.347    -773.719     -20.573
  C      446.755    -774.239     -21.446
  O      445.797    -774.355     -20.391
  O      444.540    -772.186     -20.151
  O      443.734    -773.864     -21.918
  H      444.694    -771.632     -20.931
  H      447.751    -774.432     -21.034
  H      446.738    -773.209     -21.857
  H      446.514    -774.951     -22.219
  H      435.217    -775.079     -17.968
  H      436.571    -775.755     -18.842
  H      435.770    -774.323     -19.444

 3  4  5  6  7  8  9  10  11  12  22  25  29  30  31  32 0
 6-311+G(2d,p)
 ****
 33  36  37 0
 6-311+G(2d,p)
 ****
 1  2  13  14  15  16  17  18  19  20  21  23  24  26 0
 3-21G
 ****
 27  28  34  35  38  39  40  41  42  43  44  45  46  47  48 0
 3-21G
 ****


