%nproc=1
%NoSave
%Mem=1900MB
#P OB98/GEN NMR

erre ene a

0 1
  C     -336.586     593.240    -636.145
  O     -335.251     592.820    -636.334
  H     -337.128     593.206    -637.094
  H     -337.073     592.565    -635.437
  H     -336.610     594.256    -635.739
  P     -334.368     593.662    -637.375
  C     -332.074     593.328    -636.211
  O     -332.884     593.040    -637.343
  C     -331.280     592.089    -635.809
  O     -332.191     591.138    -635.208
  C     -330.559     591.389    -636.972
  O     -329.151     591.318    -636.711
  C     -331.119     589.978    -636.974
  O     -330.129     588.977    -637.223
  C     -331.720     589.835    -635.578
  N     -332.856     584.899    -636.143
  C     -331.703     585.517    -635.827
  N     -331.486     586.829    -635.587
  C     -332.639     587.524    -635.674
  C     -333.896     587.025    -635.965
  C     -333.983     585.648    -636.229
  N     -335.153     585.026    -636.607
  N     -334.831     588.045    -635.979
  C     -334.142     589.141    -635.741
  N     -332.803     588.875    -635.571
  O     -334.195     595.082    -636.651
  O     -334.959     593.809    -638.736
  H     -329.438     589.096    -636.545
  H     -334.397     595.798    -637.279
  H     -330.822     584.880    -635.764
  H     -334.538     590.148    -635.732
  H     -330.974     589.518    -634.838
  H     -331.889     589.900    -637.748
  H     -330.734     591.879    -637.938
  H     -330.557     592.379    -635.035
  H     -332.715     593.630    -635.372
  H     -335.098     584.062    -636.885
  H     -335.968     585.599    -636.774
  H     -331.404     594.161    -636.453
  P     -328.273     592.601    -637.132
  C     -326.315     591.854    -635.588
  O     -326.732     592.224    -636.898
  O     -328.580     593.646    -635.957
  O     -328.612     593.151    -638.476
  H     -328.472     594.559    -636.283
  H     -325.268     591.634    -635.596
  H     -326.859     590.989    -635.272
  H     -326.505     592.661    -634.912

 6  7  8  9  10  11  12  13  14  15  25  28  32  33  34  35 0
 6-311+G(2d,p)
 ****
 36  39  40 0
 6-311+G(2d,p)
 ****
 1  2  3  4  5  16  17  18  19  20  21  22  23  24 0
 3-21G
 ****
 26  27  29  30  31  37  38  41  42  43  44  45  46  47  48 0
 3-21G
 ****


