%nproc=1
%NoSave
%Mem=1900MB
#P OB98/GEN NMR

erre ene a

0 1
  C     -693.906     -84.017     -42.149
  O     -694.230     -84.045     -40.751
  P     -693.283     -84.926     -39.796
  C     -692.279     -82.870     -38.527
  O     -692.056     -83.969     -39.395
  C     -691.047     -81.958     -38.514
  O     -690.728     -81.511     -39.857
  C     -691.225     -80.688     -37.695
  O     -691.161     -80.949     -36.299
  C     -690.072     -79.839     -38.232
  O     -688.841     -80.226     -37.609
  C     -690.059     -80.238     -39.728
  N     -690.650     -79.233     -40.592
  C     -689.753     -78.387     -41.255
  O     -688.534     -78.461     -41.103
  N     -690.312     -77.450     -42.069
  C     -691.648     -77.247     -42.271
  O     -692.094     -76.390     -43.026
  C     -692.547     -78.129     -41.506
  C     -692.014     -79.072     -40.724
  O     -692.656     -85.959     -40.846
  O     -694.026     -85.549     -38.657
  H     -692.501     -85.567     -41.716
  H     -688.128     -79.771     -38.102
  H     -689.680     -76.839     -42.565
  H     -693.616     -77.984     -41.618
  H     -692.664     -79.724     -40.147
  H     -689.021     -80.399     -40.058
  H     -690.219     -78.776     -38.052
  H     -692.183     -80.208     -37.941
  H     -690.201     -82.542     -38.133
  H     -692.468     -83.224     -37.514
  H     -693.172     -82.322     -38.853
  P     -692.490     -80.626     -35.448
  C     -693.151     -83.120     -35.013
  O     -693.460     -81.878     -35.617
  O     -693.167     -79.494     -36.357
  O     -692.214     -80.208     -34.045
  H     -693.155     -79.691     -37.302
  H     -694.053     -83.724     -34.936
  H     -692.741     -82.969     -34.000
  H     -692.417     -83.659     -35.620
  H     -694.610     -83.399     -42.666
  H     -693.946     -85.010     -42.544
  H     -692.921     -83.621     -42.279

 3  4  5  6  7  8  9  10  11  12  13  24  28  29  30  31  32 0
 6-311+G(2d,p)
 ****
 33  34 0
 6-311+G(2d,p)
 ****
 1  2  14  15  16  17  18  19  20  21  22  23  25  26  27 0
 3-21G
 ****
 35  36  37  38  39  40  41  42  43  44  45 0
 3-21G
 ****


