%nproc=1
%NoSave
%Mem=1900MB
#P OB98/GEN NMR

erre ene a

0 1
  C      197.629    -331.252    -304.459
  O      198.748    -330.482    -304.067
  H      197.918    -331.969    -305.232
  H      197.259    -331.801    -303.591
  H      196.833    -330.601    -304.832
  P      199.425    -329.572    -305.201
  C      198.871    -327.173    -304.387
  O      198.551    -328.229    -305.278
  C      198.301    -325.856    -304.904
  O      198.698    -325.647    -306.275
  C      196.777    -325.778    -304.904
  O      196.265    -325.476    -303.615
  C      196.551    -324.630    -305.875
  O      196.777    -323.373    -305.204
  C      197.652    -324.874    -306.920
  N      194.642    -324.662    -311.052
  C      194.951    -323.742    -310.114
  N      195.778    -323.865    -309.053
  C      196.327    -325.090    -309.024
  C      196.126    -326.127    -309.919
  C      195.231    -325.881    -310.975
  N      194.869    -326.857    -311.891
  N      196.853    -327.241    -309.550
  C      197.465    -326.888    -308.439
  N      197.184    -325.597    -308.085
  O      199.050    -330.352    -306.552
  O      200.899    -329.378    -305.065
  H      196.533    -322.673    -305.837
  H      199.802    -330.914    -306.816
  H      194.467    -322.777    -310.225
  H      198.113    -327.531    -307.859
  H      198.107    -323.941    -307.265
  H      195.536    -324.601    -306.281
  H      196.326    -326.687    -305.315
  H      198.730    -325.043    -304.305
  H      199.959    -327.084    -304.299
  H      193.935    -326.731    -312.269
  H      195.132    -327.797    -311.626
  H      198.452    -327.406    -303.402
  P      194.785    -325.984    -303.261
  C      195.412    -326.867    -300.912
  O      194.955    -327.193    -302.217
  O      194.326    -326.709    -304.612
  O      193.823    -324.918    -302.865
  H      193.492    -326.313    -304.931
  H      195.479    -327.759    -300.325
  H      194.724    -326.188    -300.452
  H      196.377    -326.408    -300.976

 6  7  8  9  10  11  12  13  14  15  25  28  32  33  34  35 0
 6-311+G(2d,p)
 ****
 36  39  40 0
 6-311+G(2d,p)
 ****
 1  2  3  4  5  16  17  18  19  20  21  22  23  24 0
 3-21G
 ****
 26  27  29  30  31  37  38  41  42  43  44  45  46  47  48 0
 3-21G
 ****


