%nproc=1
%NoSave
%Mem=1900MB
#P OB98/GEN NMR

erre ene a

0 1
  C       45.107    -219.005     249.524
  O       44.709    -220.134     248.747
  P       44.837    -221.598     249.390
  C       46.922    -222.357     248.081
  O       45.533    -222.560     248.312
  C       47.497    -223.474     247.211
  O       47.404    -224.757     247.861
  C       46.771    -223.639     245.887
  O       47.113    -222.599     244.987
  C       47.221    -225.032     245.471
  O       48.515    -224.991     244.846
  C       47.312    -225.763     246.829
  N       46.204    -226.674     247.067
  C       46.380    -227.986     246.616
  O       47.408    -228.305     246.019
  N       45.378    -228.897     246.838
  C       44.295    -228.529     247.450
  N       43.337    -229.475     247.645
  C       44.065    -227.153     247.931
  C       45.048    -226.284     247.701
  O       43.595    -222.137     250.020
  O       45.999    -221.403     250.481
  H       48.741    -225.918     244.635
  H       45.846    -222.025     251.218
  H       43.147    -226.897     248.441
  H       44.961    -225.250     248.020
  H       48.242    -226.346     246.884
  H       46.530    -225.484     244.752
  H       45.688    -223.640     246.058
  H       48.559    -223.253     247.029
  H       43.514    -230.407     247.296
  H       47.448    -222.320     249.038
  H       42.482    -229.298     248.154
  H       47.062    -221.377     247.609
  P       46.053    -221.414     244.784
  C       44.113    -222.994     244.107
  O       44.951    -221.916     243.737
  O       46.887    -220.328     243.949
  O       45.520    -220.826     246.050
  H       46.603    -219.433     244.205
  H       43.242    -223.002     243.445
  H       43.770    -222.896     245.141
  H       44.653    -223.937     243.988
  H       44.960    -218.111     248.955
  H       46.141    -219.097     249.783
  H       44.518    -218.961     250.416

 3  4  5  6  7  8  9  10  11  12  13  23  27  28  29  30  32 0
 6-311+G(2d,p)
 ****
 34  35 0
 6-311+G(2d,p)
 ****
 1  2  14  15  16  17  18  19  20  21  22  24  25  26 0
 3-21G
 ****
 31  33  36  37  38  39  40  41  42  43  44  45  46 0
 3-21G
 ****


