%nproc=1
%NoSave
%Mem=1900MB
#P OB98/GEN NMR

erre ene a

0 1
  C     -305.501      35.470      46.794
  O     -304.497      34.485      46.674
  P     -303.255      34.436      47.685
  C     -304.512      33.054      49.462
  O     -303.868      34.290      49.163
  C     -304.172      32.607      50.886
  O     -305.097      31.544      51.278
  C     -302.736      32.057      51.013
  O     -301.960      32.659      52.051
  C     -302.965      30.558      51.152
  O     -301.879      29.867      51.740
  C     -304.297      30.515      51.898
  N     -304.937      29.203      51.834
  C     -305.470      28.697      53.017
  O     -305.455      29.287      54.091
  N     -305.992      27.436      52.945
  C     -305.931      26.598      51.871
  O     -306.331      25.445      51.912
  C     -305.317      27.174      50.662
  C     -304.875      28.432      50.686
  O     -302.267      35.542      47.536
  O     -302.644      32.975      47.435
  H     -302.158      28.942      51.882
  H     -303.257      32.242      47.608
  H     -306.386      27.055      53.796
  H     -305.242      26.532      49.798
  H     -304.415      28.881      49.814
  H     -304.182      30.785      52.950
  H     -303.094      30.148      50.144
  H     -302.158      32.252      50.104
  H     -304.326      33.460      51.552
  H     -304.167      32.297      48.755
  H     -305.597      33.161      49.329
  P     -300.365      32.592      52.164
  C     -300.156      34.379      50.283
  O     -299.745      33.122      50.785
  O     -299.815      31.290      52.643
  O     -300.016      33.767      53.196
  H     -299.200      33.545      53.678
  H     -300.075      34.363      49.194
  H     -299.501      35.155      50.676
  H     -301.197      34.602      50.553
  H     -306.234      35.328      46.028
  H     -305.062      36.441      46.692
  H     -305.968      35.388      47.753

 3  4  5  6  7  8  9  10  11  12  13  23  28  29  30  31  32 0
 6-311+G(2d,p)
 ****
 33  34 0
 6-311+G(2d,p)
 ****
 1  2  14  15  16  17  18  19  20  21  22  24  25  26  27 0
 3-21G
 ****
 35  36  37  38  39  40  41  42  43  44  45 0
 3-21G
 ****


