%nproc=1
%NoSave
%Mem=1900MB
#P OB98/GEN NMR

erre ene a

0 1
  C      -80.397     -65.677      15.403
  O      -79.798     -65.297      16.625
  H      -81.366     -66.137      15.614
  H      -79.769     -66.405      14.882
  H      -80.552     -64.798      14.771
  P      -78.331     -64.650      16.543
  C      -77.292     -67.014      16.839
  O      -77.340     -65.820      16.069
  C      -76.220     -67.941      16.277
  O      -76.438     -68.146      14.862
  C      -74.803     -67.396      16.394
  O      -74.273     -67.548      17.700
  C      -74.080     -68.248      15.363
  O      -73.687     -69.517      15.909
  C      -75.154     -68.425      14.266
  N      -74.895     -67.585      13.102
  C      -74.084     -68.146      12.120
  O      -73.603     -69.275      12.208
  N      -73.808     -67.347      11.044
  C      -74.223     -66.057      10.877
  O      -73.881     -65.370       9.922
  C      -75.092     -65.521      11.939
  C      -75.375     -66.294      12.992
  O      -77.949     -64.426      18.082
  O      -78.239     -63.390      15.750
  H      -78.052     -63.485      18.316
  H      -73.104     -69.318      16.668
  H      -73.212     -67.732      10.327
  H      -75.445     -64.502      11.834
  H      -75.995     -65.913      13.798
  H      -75.184     -69.470      13.929
  H      -73.170     -67.762      15.007
  H      -74.771     -66.347      16.071
  H      -76.303     -68.915      16.781
  H      -78.262     -67.520      16.790
  H      -77.079     -66.758      17.882
  P      -73.867     -66.230      18.519
  C      -71.355     -66.586      17.831
  O      -72.474     -65.722      17.904
  O      -73.462     -66.859      19.933
  O      -74.942     -65.199      18.571
  H      -73.027     -67.726      19.855
  H      -70.530     -66.064      17.394
  H      -71.599     -67.436      17.229
  H      -71.090     -66.911      18.816

 6  7  8  9  10  11  12  13  14  15  16  27  31  32  33  34  35 0
 6-311+G(2d,p)
 ****
 36  37 0
 6-311+G(2d,p)
 ****
 1  2  3  4  5  17  18  19  20  21  22  23  24  25 0
 3-21G
 ****
 26  28  29  30  38  39  40  41  42  43  44  45 0
 3-21G
 ****


