%nproc=1
%NoSave
%Mem=1900MB
#P OB98/GEN NMR

erre ene a

0 1
  C      518.001    -289.018    -165.355
  O      518.745    -290.184    -165.059
  H      518.502    -288.483    -166.163
  H      517.949    -288.361    -164.480
  H      516.990    -289.284    -165.689
  P      518.278    -291.089    -163.816
  C      518.711    -290.945    -161.263
  O      519.054    -290.461    -162.555
  C      519.936    -290.938    -160.350
  O      520.954    -291.854    -160.836
  C      520.652    -289.596    -160.250
  O      519.958    -288.648    -159.455
  C      521.963    -290.039    -159.613
  O      521.756    -290.305    -158.213
  C      522.239    -291.353    -160.395
  N      523.139    -291.163    -161.527
  C      524.503    -291.057    -161.245
  O      524.911    -291.123    -160.082
  N      525.383    -290.839    -162.273
  C      524.939    -290.721    -163.494
  N      525.849    -290.458    -164.469
  C      523.510    -290.843    -163.842
  C      522.669    -291.053    -162.829
  O      518.421    -292.566    -163.987
  O      516.770    -290.621    -163.531
  H      521.320    -289.517    -157.841
  H      516.429    -291.169    -162.775
  H      523.188    -290.725    -164.868
  H      521.604    -291.139    -162.999
  H      522.666    -292.115    -159.730
  H      522.754    -289.295    -159.694
  H      520.865    -289.190    -161.242
  H      519.617    -291.309    -159.365
  H      526.809    -290.337    -164.192
  H      518.308    -291.961    -161.376
  H      525.558    -290.083    -165.371
  H      517.942    -290.308    -160.809
  P      519.995    -287.115    -159.904
  C      521.040    -284.997    -158.782
  O      521.120    -286.395    -158.993
  O      518.627    -286.529    -159.329
  O      520.160    -286.859    -161.374
  H      517.920    -286.554    -160.013
  H      521.854    -284.683    -158.162
  H      520.114    -284.761    -158.301
  H      521.092    -284.491    -159.723

 6  7  8  9  10  11  12  13  14  15  16  26  30  31  32  33  35 0
 6-311+G(2d,p)
 ****
 37  38 0
 6-311+G(2d,p)
 ****
 1  2  3  4  5  17  18  19  20  21  22  23  24  25 0
 3-21G
 ****
 27  28  29  34  36  39  40  41  42  43  44  45  46 0
 3-21G
 ****


