%nproc=1
%NoSave
%Mem=1900MB
#P OB98/GEN NMR

erre ene a

0 1
  C     -263.656     325.772     125.215
  O     -265.066     325.889     125.177
  H     -263.260     325.962     124.212
  H     -263.356     324.767     125.524
  H     -263.237     326.514     125.900
  P     -265.900     325.388     126.452
  C     -266.135     327.672     127.623
  O     -265.506     326.394     127.644
  C     -266.554     328.103     129.030
  O     -267.103     329.440     129.010
  C     -267.645     327.242     129.647
  O     -267.259     325.919     129.934
  C     -268.150     328.135     130.770
  O     -267.336     328.048     131.941
  C     -268.010     329.541     130.132
  N     -269.299     330.098     129.735
  C     -269.848     331.039     130.600
  O     -269.316     331.384     131.657
  N     -271.058     331.552     130.225
  C     -271.777     331.191     129.126
  O     -272.871     331.680     128.855
  C     -271.164     330.166     128.268
  C     -269.970     329.675     128.608
  O     -265.736     323.938     126.803
  O     -267.408     325.800     126.110
  H     -267.516     327.177     132.347
  H     -268.049     325.333     126.699
  H     -271.466     332.250     130.831
  H     -271.710     329.848     127.393
  H     -269.492     328.914     127.987
  H     -267.544     330.234     130.844
  H     -269.169     327.886     131.065
  H     -268.467     327.162     128.922
  H     -265.657     328.124     129.661
  H     -267.026     327.595     126.989
  H     -265.451     328.410     127.189
  P     -268.222     324.842     130.612
  C     -267.964     323.380     128.459
  O     -268.828     323.906     129.459
  O     -269.147     325.339     131.669
  O     -267.155     323.853     131.317
  H     -267.568     323.526     132.143
  H     -268.531     322.783     127.776
  H     -267.211     322.776     128.920
  H     -267.500     324.185     127.929

 6  7  8  9  10  11  12  13  14  15  16  26  31  32  33  34  35 0
 6-311+G(2d,p)
 ****
 36  37 0
 6-311+G(2d,p)
 ****
 1  2  3  4  5  17  18  19  20  21  22  23  24  25 0
 3-21G
 ****
 27  28  29  30  38  39  40  41  42  43  44  45 0
 3-21G
 ****


