%nproc=1
%NoSave
%Mem=1900MB
#P OB98/GEN NMR

erre ene a

0 1
  C      280.528      86.281     388.696
  O      281.212      86.238     387.455
  H      279.760      87.052     388.641
  H      281.223      86.541     389.499
  H      280.051      85.321     388.908
  P      282.339      85.112     387.234
  C      283.812      86.162     385.408
  O      282.793      85.217     385.693
  C      283.624      86.737     384.008
  O      283.566      85.648     383.053
  C      282.344      87.565     383.837
  O      282.630      88.678     382.983
  C      281.387      86.619     383.151
  O      280.403      87.301     382.381
  C      282.344      85.780     382.297
  N      280.974      82.706     378.533
  C      281.590      83.936     378.496
  N      281.859      84.447     377.265
  N      281.911      84.618     379.559
  C      281.596      83.987     380.716
  C      280.989      82.766     380.880
  C      280.624      82.028     379.701
  O      280.066      80.934     379.665
  N      280.807      82.477     382.219
  C      281.314      83.523     382.847
  N      281.791      84.472     381.989
  O      281.964      83.734     387.674
  O      283.603      85.671     388.034
  H      279.865      86.623     381.926
  H      283.684      85.232     388.900
  H      280.743      82.225     377.675
  H      281.337      83.646     383.931
  H      282.586      86.256     381.336
  H      280.875      85.996     383.890
  H      281.656      83.968     376.405
  H      281.945      87.935     384.795
  H      282.333      85.347     377.223
  H      284.515      87.337     383.749
  H      284.783      85.654     385.469
  H      283.783      86.975     386.150
  P      282.895      90.114     383.638
  C      281.971      91.909     382.034
  O      283.115      91.176     382.446
  O      283.929      90.149     384.725
  O      281.449      90.528     384.205
  H      281.572      91.099     384.985
  H      282.241      92.577     381.243
  H      281.591      92.471     382.861
  H      281.219      91.231     381.688

 6  7  8  9  10  11  12  13  14  15  26  29  33  34 0
 6-311+G(2d,p)
 ****
 36  38  39  40  41 0
 6-311+G(2d,p)
 ****
 1  2  3  4  5  16  17  18  19  20  21  22  23  24  25 0
 3-21G
 ****
 27  28  30  31  32  35  37  42  43  44  45  46  47 0
 3-21G
 ****
 48  49 0
 3-21G
 ****


