%nproc=1
%NoSave
%Mem=1900MB
#P OB98/GEN NMR

erre ene a

0 1
  C        7.981    -893.500    -387.716
  O        6.936    -892.970    -388.505
  H        7.591    -893.710    -386.716
  H        8.803    -892.780    -387.630
  H        8.353    -894.430    -388.154
  P        7.300    -892.610    -390.021
  C        5.390    -894.160    -390.880
  O        6.780    -893.830    -390.908
  C        5.038    -895.100    -392.041
  O        5.054    -894.340    -393.282
  C        6.030    -896.270    -392.221
  O        5.311    -897.380    -392.788
  C        6.994    -895.700    -393.264
  O        7.801    -896.700    -393.815
  C        5.994    -894.990    -394.175
  N        7.123    -893.900    -399.040
  C        6.432    -894.920    -398.483
  N        6.165    -895.140    -397.184
  C        6.663    -894.150    -396.412
  C        7.359    -893.030    -396.844
  C        7.594    -892.930    -398.226
  N        8.292    -891.890    -398.790
  N        7.718    -892.240    -395.771
  C        7.226    -892.860    -394.715
  N        6.599    -894.030    -395.062
  O        8.898    -892.770    -390.063
  O        6.856    -891.260    -390.488
  H        8.418    -896.320    -394.482
  H        9.316    -891.900    -389.933
  H        6.057    -895.680    -399.174
  H        7.314    -892.520    -393.695
  H        5.424    -895.720    -394.781
  H        7.673    -894.960    -392.790
  H        6.523    -896.580    -391.290
  H        4.017    -895.460    -391.916
  H        4.813    -893.240    -390.961
  H        5.163    -894.650    -389.921
  H        8.435    -891.900    -399.794
  H        8.682    -891.170    -398.204
  P        5.341    -898.800    -392.050
  C        2.858    -898.640    -391.244
  O        4.226    -898.790    -390.897
  O        6.696    -898.690    -391.193
  O        5.358    -900.000    -392.938
  H        7.049    -899.600    -391.048
  H        2.261    -898.656    -390.356
  H        2.563    -899.443    -391.887
  H        2.719    -897.708    -391.751

 6  7  8  9  10  11  12  13  14  15  25  28  32  33  34  35 0
 6-311+G(2d,p)
 ****
 36  37  40 0
 6-311+G(2d,p)
 ****
 1  2  3  4  5  16  17  18  19  20  21  22  23  24 0
 3-21G
 ****
 26  27  29  30  31  38  39 41  42  43  44  45  46  47  48 0
 3-21G
 ****


