%nproc=1
%NoSave
%Mem=1900MB
#P OB98/GEN NMR

erre ene a

0 1
  C     -279.732      71.190    -262.533
  O     -281.143      71.266    -262.501
  H     -279.373      70.629    -261.663
  H     -279.427      70.665    -263.443
  H     -279.291      72.190    -262.534
  P     -281.794      72.152    -261.333
  C     -282.414      70.198    -259.733
  O     -281.572      71.316    -259.975
  C     -282.305      69.758    -258.270
  O     -283.084      68.547    -258.084
  C     -280.869      69.464    -257.821
  O     -280.698      69.922    -256.477
  C     -280.794      67.947    -257.859
  O     -279.793      67.431    -256.984
  C     -282.219      67.561    -257.475
  N     -282.409      62.617    -256.191
  C     -282.121      63.730    -255.473
  N     -282.096      65.011    -255.899
  C     -282.471      65.095    -257.184
  C     -282.790      64.055    -258.049
  C     -282.744      62.762    -257.498
  N     -283.002      61.620    -258.222
  N     -283.084      64.537    -259.308
  C     -282.935      65.849    -259.214
  N     -282.562      66.229    -257.952
  O     -283.370      71.992    -261.617
  O     -281.378      73.580    -261.290
  H     -279.654      66.484    -257.204
  H     -283.629      72.595    -262.344
  H     -281.866      63.567    -254.432
  H     -283.083      66.553    -260.022
  H     -282.381      67.569    -256.396
  H     -280.556      67.611    -258.881
  H     -280.119      69.927    -258.464
  H     -282.766      70.529    -257.637
  H     -282.111      69.371    -260.385
  H     -282.884      60.727    -257.772
  H     -283.194      61.700    -259.218
  H     -283.454      70.471    -259.960
  P     -279.930      71.322    -256.292
  C     -278.022      70.557    -254.719
  O     -278.380      71.026    -256.007
  O     -280.481      71.862    -254.883
  O     -280.201      72.304    -257.393
  H     -280.781      72.786    -254.976
  H     -276.964      70.405    -254.676
  H     -278.524      69.632    -254.524
  H     -278.308      71.280    -253.984

 6  7  8  9  10  11  12  13  14  15  25  28  32  33  34  35 0
 6-311+G(2d,p)
 ****
 36  39  40 0
 6-311+G(2d,p)
 ****
 1  2  3  4  5  16  17  18  19  20  21  22  23  24 0
 3-21G
 ****
 26  27  29  30  31  37  38  41  42  43  44  45  46  47 0
 3-21G
 ****
 48 0
 3-21G
 ****


