%nproc=1
%NoSave
%Mem=1900MB
#P OB98/GEN NMR

erre ene a

0 1
  C      273.760    -536.637    1008.170
  O      273.532    -535.838    1007.013
  P      273.287    -534.255    1007.218
  C      274.669    -533.281    1005.275
  O      274.590    -533.481    1006.678
  C      275.136    -531.836    1004.964
  O      274.140    -530.876    1005.343
  C      276.385    -531.434    1005.705
  O      277.538    -532.053    1005.142
  C      276.331    -529.918    1005.592
  O      276.846    -529.490    1004.310
  C      274.814    -529.643    1005.658
  N      274.389    -529.116    1006.954
  C      274.446    -527.719    1007.079
  O      274.856    -527.023    1006.163
  N      274.018    -527.157    1008.272
  C      273.600    -527.917    1009.229
  N      273.206    -527.308    1010.377
  C      273.551    -529.392    1009.136
  C      273.957    -529.908    1007.970
  O      272.799    -533.841    1008.564
  O      272.203    -533.923    1006.072
  H      276.830    -528.512    1004.324
  H      271.652    -533.175    1006.384
  H      273.178    -529.990    1009.953
  H      273.948    -530.987    1007.820
  H      274.524    -528.918    1004.884
  H      276.930    -529.427    1006.357
  H      276.303    -531.718    1006.769
  H      275.293    -531.766    1003.889
  H      273.261    -526.304    1010.415
  H      273.707    -533.467    1004.818
  H      272.804    -527.811    1011.170
  H      275.371    -534.006    1004.858
  P      278.348    -533.105    1006.058
  C      277.681    -535.210    1004.695
  O      277.619    -534.512    1005.938
  O      277.993    -532.612    1007.555
  O      279.820    -533.116    1005.826
  H      278.759    -532.780    1008.129
  H      277.420    -536.268    1004.883
  H      278.683    -535.164    1004.266
  H      276.964    -534.779    1003.994
  H      273.904    -537.656    1007.877
  H      272.914    -536.570    1008.822
  H      274.633    -536.285    1008.680

 3  4  5  6  7  8  9  10  11  12  13  23  27  28  29  30  32 0
 6-311+G(2d,p)
 ****
 34  35 0
 6-311+G(2d,p)
 ****
 1  2  14  15  16  17  18  19  20  21  22  24  25  26 0
 3-21G
 ****
 31  33  36  37  38  39  40  41  42  43  44  45  46 0
 3-21G
 ****


