%nproc=1
%NoSave
%Mem=1900MB
#P OB98/GEN NMR

erre ene a

0 1
  C      -21.512     191.435      50.726
  O      -21.850     192.587      49.984
  H      -20.423     191.380      50.813
  H      -21.869     190.536      50.216
  H      -21.943     191.491      51.727
  P      -23.409     192.826      49.688
  C      -23.459     191.311      47.578
  O      -23.931     191.529      48.900
  C      -23.919     189.942      47.088
  O      -23.539     189.761      45.704
  C      -23.294     188.773      47.836
  O      -23.906     188.549      49.093
  C      -23.533     187.639      46.852
  O      -24.853     187.088      46.997
  C      -23.377     188.345      45.487
  N      -22.099     188.032      44.852
  C      -22.026     188.288      43.486
  O      -22.966     188.743      42.833
  N      -20.845     187.961      42.879
  C      -19.766     187.385      43.485
  O      -18.760     187.050      42.867
  C      -19.895     187.152      44.933
  C      -21.040     187.473      45.539
  O      -23.394     193.971      48.570
  O      -24.227     193.207      50.875
  H      -23.619     194.831      48.972
  H      -25.471     187.843      46.945
  H      -20.776     188.128      41.886
  H      -19.054     186.702      45.446
  H      -21.165     187.291      46.603
  H      -24.177     188.037      44.803
  H      -22.831     186.821      47.002
  H      -22.212     188.923      47.941
  H      -25.015     189.901      47.153
  H      -22.363     191.344      47.570
  H      -23.838     192.106      46.928
  P      -22.977     188.146      50.338
  C      -23.576     185.590      50.224
  O      -22.591     186.602      50.137
  O      -24.044     188.130      51.528
  O      -21.818     189.060      50.542
  H      -24.919     187.808      51.250
  H      -23.122     184.635      50.062
  H      -24.327     185.759      49.481
  H      -24.024     185.611      51.195

 6  7  8  9  10  11  12  13  14  15  16  27  31  32  33  34  35 0
 6-311+G(2d,p)
 ****
 36  37 0
 6-311+G(2d,p)
 ****
 1  2  3  4  5  17  18  19  20  21  22  23  24  25 0
 3-21G
 ****
 26  28  29  30  38  39  40  41  42  43  44  45 0
 3-21G
 ****


