%nproc=1
%NoSave
%Mem=1900MB
#P OB98/GEN NMR

erre ene a

0 1
  C      155.804    -896.930     493.348
  O      155.649    -895.670     492.736
  P      155.580    -895.560     491.130
  C      157.536    -893.896     490.982
  O      157.071    -895.200     490.643
  C      158.966    -893.700     490.442
  O      159.901    -894.560     491.129
  C      159.110    -894.058     488.970
  O      158.445    -893.240     488.028
  C      160.628    -894.133     488.845
  O      161.212    -892.837     488.703
  C      161.020    -894.740     490.211
  N      161.391    -896.160     490.098
  C      162.305    -896.460     489.101
  O      162.794    -895.640     488.339
  N      162.616    -897.790     488.958
  C      162.082    -898.820     489.687
  O      162.387    -900.000     489.488
  C      161.106    -898.440     490.742
  C      160.806    -897.140     490.878
  O      154.507    -894.660     490.605
  O      155.432    -897.090     490.665
  H      162.175    -892.934     488.847
  H      156.163    -897.670     490.939
  H      163.267    -898.050     488.233
  H      160.688    -899.220     491.329
  H      160.083    -896.830     491.645
  H      161.869    -894.198     490.653
  H      160.941    -894.720     487.976
  H      158.732    -895.070     488.823
  H      159.264    -892.658     490.640
  H      157.552    -893.795     492.076
  H      156.860    -893.134     490.579
  P      158.520    -893.501     486.444
  C      159.741    -891.288     485.809
  O      159.795    -892.707     485.879
  O      157.245    -893.382     485.676
  O      159.033    -895.020     486.382
  H      158.664    -895.440     485.574
  H      160.665    -890.930     485.372
  H      159.655    -890.865     486.833
  H      158.900    -890.965     485.198
  H      155.829    -896.810     494.411
  H      156.718    -897.377     493.018
  H      154.982    -897.560     493.080

 3  4  5  6  7  8  9  10  11  12  13  23  28  29  30  31  32 0
 6-311+G(2d,p)
 ****
 33  34 0
 6-311+G(2d,p)
 ****
 1  2  14  15  16  17  18  19  20  21  22  24  25  26  27 0
 3-21G
 ****
 35  36  37  38  39  40  41  42  43  44  45 0
 3-21G
 ****


