%nproc=1
%NoSave
%Mem=1900MB
#P OB98/GEN NMR

erre ene a

0 1
  C      -51.871     287.371    -313.642
  O      -53.273     287.544    -313.729
  H      -51.581     287.408    -312.589
  H      -51.364     288.176    -314.177
  H      -51.581     286.403    -314.057
  P      -53.936     287.344    -315.179
  C      -55.997     288.949    -314.899
  O      -55.502     287.624    -314.978
  C      -57.253     289.005    -314.026
  O      -58.290     288.204    -314.652
  C      -57.040     288.472    -312.607
  O      -57.840     289.244    -311.711
  C      -57.589     287.055    -312.683
  O      -57.971     286.562    -311.401
  C      -58.742     287.232    -313.685
  N      -59.120     285.979    -314.324
  C      -59.802     285.046    -313.529
  O      -60.048     285.304    -312.350
  N      -60.158     283.842    -314.077
  C      -59.807     283.555    -315.289
  N      -60.162     282.330    -315.764
  C      -59.039     284.483    -316.149
  C      -58.746     285.665    -315.609
  O      -53.854     285.758    -315.359
  O      -53.283     288.125    -316.268
  H      -58.129     285.595    -311.472
  H      -54.119     285.262    -314.565
  H      -58.758     284.194    -317.151
  H      -58.196     286.411    -316.171
  H      -59.626     287.646    -313.183
  H      -56.831     286.377    -313.090
  H      -55.996     288.507    -312.295
  H      -57.616     290.038    -314.008
  H      -60.662     281.718    -315.134
  H      -56.232     289.329    -315.901
  H      -59.890     281.979    -316.671
  H      -55.208     289.580    -314.475
  P      -57.134     290.060    -310.529
  C      -59.179     289.637    -308.997
  O      -58.254     290.594    -309.509
  O      -56.128     291.075    -310.955
  O      -56.419     288.897    -309.674
  H      -55.542     289.228    -309.401
  H      -59.865     290.123    -308.335
  H      -58.647     288.876    -308.465
  H      -59.719     289.194    -309.808

 6  7  8  9  10  11  12  13  14  15  16  26  30  31  32  33  35 0
 6-311+G(2d,p)
 ****
 37  38 0
 6-311+G(2d,p)
 ****
 1  2  3  4  5  17  18  19  20  21  22  23  24  25 0
 3-21G
 ****
 27  28  29  34  36  39  40  41  42  43  44  45  46 0
 3-21G
 ****


