%nproc=1
%NoSave
%Mem=1900MB
#P OB98/GEN NMR

erre ene a

0 1
  C       96.958     -38.103     -85.460
  O       95.737     -37.427     -85.689
  H       97.638     -37.431     -84.929
  H       97.416     -38.387     -86.412
  H       96.788     -38.992     -84.848
  P       94.623     -38.234     -86.517
  C       95.264     -36.793     -88.574
  O       95.025     -38.097     -88.065
  C       95.355     -36.822     -90.097
  O       96.482     -37.615     -90.527
  C       94.123     -37.397     -90.789
  O       93.118     -36.408     -90.937
  C       94.713     -37.839     -92.121
  O       94.856     -36.718     -93.021
  C       96.088     -38.377     -91.701
  N       97.764     -42.869     -93.285
  C       97.846     -41.626     -93.881
  N       98.439     -41.573     -95.094
  N       97.378     -40.531     -93.344
  C       96.760     -40.740     -92.158
  C       96.611     -41.920     -91.466
  C       97.183     -43.116     -92.047
  O       97.216     -44.229     -91.531
  N       95.940     -41.723     -90.285
  C       95.655     -40.434     -90.283
  N       96.127     -39.796     -91.400
  O       93.322     -37.307     -86.392
  O       94.346     -39.618     -86.038
  H       95.142     -37.045     -93.892
  H       92.537     -37.880     -86.303
  H       98.169     -43.672     -93.730
  H       95.122     -39.918     -89.495
  H       96.848     -38.201     -92.470
  H       94.068     -38.559     -92.627
  H       98.548     -42.394     -95.672
  H       93.743     -38.273     -90.252
  H       98.431     -40.675     -95.560
  H       95.540     -35.793     -90.435
  H       96.207     -36.420     -88.161
  H       94.450     -36.130     -88.264
  P       91.593     -36.840     -90.699
  C       91.381     -37.546     -93.189
  O       91.200     -37.912     -91.829
  O       90.780     -35.529     -91.127
  O       91.268     -37.236     -89.298
  H       90.449     -35.070     -90.332
  H       91.078     -38.356     -93.820
  H       92.413     -37.324     -93.364
  H       90.788     -36.682     -93.408

 6  7  8  9  10  11  12  13  14  15  26  29  33  34 0
 6-311+G(2d,p)
 ****
 36  38  39  40  41 0
 6-311+G(2d,p)
 ****
 1  2  3  4  5  16  17  18  19  20  21  22  23  24  25 0
 3-21G
 ****
 27  28  30  31  32  35  37  42  43  44  45  46  47 0
 3-21G
 ****
 48  49 0
 3-21G
 ****


