%nproc=1
%NoSave
%Mem=1900MB
#P OB98/GEN NMR

erre ene a

0 1
  C     -101.012    -376.901     298.222
  O     -100.043    -376.459     299.154
  H     -100.611    -377.766     297.686
  H     -101.245    -376.116     297.499
  H     -101.920    -377.208     298.746
  P     -100.277    -375.042     299.873
  C     -100.251    -372.591     299.065
  O      -99.886    -373.933     298.771
  C      -99.618    -371.608     298.081
  O      -98.186    -371.560     298.256
  C      -99.814    -371.986     296.620
  O     -101.146    -371.913     296.165
  C      -98.749    -371.142     295.935
  O      -99.175    -369.803     295.710
  C      -97.616    -371.169     296.987
  N      -96.513    -372.048     296.602
  C      -95.428    -371.426     295.989
  O      -95.377    -370.216     295.754
  N      -94.403    -372.249     295.622
  C      -94.376    -373.608     295.763
  O      -93.427    -374.297     295.393
  C      -95.570    -374.211     296.380
  C      -96.570    -373.414     296.770
  O      -99.580    -374.861     301.189
  O     -101.871    -374.914     299.962
  H      -98.435    -369.339     295.275
  H     -102.135    -374.207     300.599
  H      -93.595    -371.820     295.190
  H      -95.588    -375.288     296.493
  H      -97.458    -373.838     297.227
  H      -97.206    -370.159     297.135
  H      -98.455    -371.559     294.966
  H      -99.510    -373.033     296.490
  H     -100.016    -370.611     298.291
  H      -99.899    -372.363     300.082
  H     -101.345    -372.496     299.044
  P     -101.890    -373.099     295.400
  C     -101.901    -374.073     292.972
  O     -101.284    -373.207     293.917
  O     -103.375    -373.175     295.560
  O     -101.253    -374.400     296.121
  H     -101.956    -375.086     296.149
  H     -101.372    -374.022     292.043
  H     -102.916    -373.771     292.821
  H     -101.878    -375.077     293.341

 6  7  8  9  10  11  12  13  14  15  16  26  31  32  33  34  35 0
 6-311+G(2d,p)
 ****
 36  37 0
 6-311+G(2d,p)
 ****
 1  2  3  4  5  17  18  19  20  21  22  23  24  25 0
 3-21G
 ****
 27  28  29  30  38  39  40  41  42  43  44  45 0
 3-21G
 ****


