%nproc=1
%NoSave
%Mem=1900MB
#P OB98/GEN NMR

erre ene a

0 1
  C     -123.769     -76.959     624.009
  O     -123.354     -76.851     622.662
  P     -124.415     -77.013     621.465
  C     -122.498     -78.071     620.102
  O     -123.845     -78.206     620.547
  C     -121.945     -79.420     619.644
  O     -121.551     -80.227     620.775
  C     -122.948     -80.270     618.862
  O     -123.074     -79.800     617.533
  C     -122.320     -81.652     618.989
  O     -121.279     -81.846     618.011
  C     -121.719     -81.610     620.412
  N     -122.543     -82.328     621.381
  C     -121.853     -83.015     622.382
  O     -120.611     -83.028     622.397
  N     -122.570     -83.723     623.319
  C     -123.869     -83.747     623.248
  N     -124.526     -84.475     624.196
  C     -124.632     -83.065     622.184
  C     -123.917     -82.379     621.292
  O     -124.750     -75.753     620.745
  O     -125.677     -77.686     622.191
  H     -120.928     -82.747     618.151
  H     -126.161     -77.036     622.750
  H     -125.713     -83.123     622.157
  H     -124.396     -81.844     620.480
  H     -120.709     -82.057     620.423
  H     -123.050     -82.457     618.839
  H     -123.916     -80.266     619.373
  H     -121.051     -79.238     619.029
  H     -123.959     -84.954     624.884
  H     -121.892     -77.702     620.934
  H     -125.524     -84.594     624.202
  H     -122.457     -77.340     619.288
  P     -124.526     -79.452     616.950
  C     -123.575     -79.741     614.577
  O     -124.616     -80.079     615.478
  O     -124.932     -78.021     617.059
  O     -125.510     -80.389     617.806
  H     -126.288     -79.869     618.074
  H     -123.562     -80.467     613.760
  H     -122.605     -79.758     615.082
  H     -123.755     -78.739     614.170
  H     -122.926     -76.823     624.654
  H     -124.192     -77.928     624.175
  H     -124.503     -76.208     624.217

 3  4  5  6  7  8  9  10  11  12  13  23  27  28  29  30  32 0
 6-311+G(2d,p)
 ****
 34  35 0
 6-311+G(2d,p)
 ****
 1  2  14  15  16  17  18  19  20  21  22  24  25  26 0
 3-21G
 ****
 31  33  36  37  38  39  40  41  42  43  44  45  46 0
 3-21G
 ****


