%nproc=1
%NoSave
%Mem=1900MB
#P OB98/GEN NMR

erre ene a

0 1
  C      313.722      84.267     -37.680
  O      314.075      83.757     -38.970
  P      314.033      84.741     -40.235
  C      311.722      84.444     -41.342
  O      312.520      85.230     -40.469
  C      310.233      84.785     -41.184
  O      310.012      86.182     -41.514
  C      309.322      83.939     -42.084
  O      308.241      83.329     -41.377
  C      308.930      84.900     -43.195
  O      307.716      84.535     -43.838
  C      308.956      86.263     -42.491
  N      309.156      87.361     -43.438
  C      308.010      87.989     -43.909
  O      306.870      87.620     -43.630
  N      308.210      89.036     -44.771
  C      309.414      89.448     -45.258
  O      309.542      90.363     -46.069
  C      310.590      88.706     -44.777
  C      310.405      87.713     -43.899
  O      314.732      84.251     -41.461
  O      314.739      86.071     -39.675
  H      307.564      85.153     -44.588
  H      315.290      86.443     -40.394
  H      307.388      89.517     -45.110
  H      311.558      88.988     -45.157
  H      311.246      87.137     -43.535
  H      308.014      86.453     -41.965
  H      309.715      84.883     -43.958
  H      309.862      83.092     -42.515
  H      309.972      84.639     -40.130
  H      311.867      83.386     -41.111
  H      312.061      84.585     -42.372
  P      308.399      82.105     -40.364
  C      307.231      80.105     -41.532
  O      308.451      80.751     -41.216
  O      307.449      82.082     -39.213
  O      309.903      82.266     -39.834
  H      309.932      82.063     -38.879
  H      307.445      79.057     -41.769
  H      306.783      80.581     -42.408
  H      306.533      80.138     -40.689
  H      313.803      83.486     -36.953
  H      312.716      84.630     -37.703
  H      314.384      85.066     -37.419

 3  4  5  6  7  8  9  10  11  12  13  23  28  29  30  31  32 0
 6-311+G(2d,p)
 ****
 33  34 0
 6-311+G(2d,p)
 ****
 1  2  14  15  16  17  18  19  20  21  22  24  25  26  27 0
 3-21G
 ****
 35  36  37  38  39  40  41  42  43  44  45 0
 3-21G
 ****


