%nproc=1
%NoSave
%Mem=1900MB
#P OB98/GEN NMR

erre ene a

0 1
  C       14.719    -301.107    -625.446
  O       14.889    -302.369    -624.820
  P       15.799    -302.418    -623.498
  C       16.135    -304.141    -621.578
  O       15.329    -303.701    -622.653
  C       15.627    -305.504    -621.057
  O       14.236    -305.387    -620.701
  C       15.707    -306.631    -622.068
  O       17.035    -307.109    -622.200
  C       14.737    -307.621    -621.427
  O       15.378    -308.321    -620.353
  C       13.641    -306.697    -620.882
  N        8.770    -308.090    -621.723
  C        9.645    -308.414    -620.752
  N       10.934    -308.013    -620.606
  C       11.287    -307.200    -621.609
  C       10.522    -306.806    -622.687
  C        9.197    -307.271    -622.733
  N        8.316    -306.947    -623.725
  N       11.229    -305.972    -623.532
  C       12.418    -305.869    -622.959
  N       12.499    -306.574    -621.785
  O       15.246    -301.192    -622.633
  O       17.275    -302.318    -623.740
  H       14.766    -309.014    -620.043
  H       15.964    -300.769    -622.119
  H        9.269    -309.071    -619.977
  H       13.251    -305.295    -623.362
  H       13.249    -307.031    -619.913
  H       14.369    -308.381    -622.135
  H       15.327    -306.309    -623.045
  H       16.194    -305.743    -620.146
  H       16.103    -303.420    -620.767
  H        7.433    -307.451    -623.767
  H        8.670    -306.463    -624.543
  H       17.173    -304.231    -621.922
  P       17.301    -308.236    -623.320
  C       19.371    -308.862    -624.721
  O       18.802    -307.920    -623.820
  O       16.407    -307.696    -624.539
  O       17.040    -309.628    -622.883
  H       16.555    -306.747    -624.706
  H       20.357    -308.506    -625.013
  H       18.745    -308.962    -625.612
  H       19.479    -309.830    -624.225
  H       14.095    -301.218    -626.308
  H       15.673    -300.725    -625.743
  H       14.260    -300.427    -624.759

 3  4  5  6  7  8  9  10  11  12  22  25  29  30  31  32 0
 6-311+G(2d,p)
 ****
 33  36  37 0
 6-311+G(2d,p)
 ****
 1  2  13  14  15  16  17  18  19  20  21  23  24  26 0
 3-21G
 ****
 27  28  34  35  38  39  40  41  42  43  44  45  46  47  48 0
 3-21G
 ****


