%nproc=1
%NoSave
%Mem=1900MB
#P OB98/GEN NMR

erre ene a

0 1
  C      -23.784      77.593     116.715
  O      -23.659      76.695     117.805
  P      -23.134      77.299     119.199
  C      -20.800      77.769     120.256
  O      -21.534      77.215     119.169
  C      -19.464      77.048     120.409
  O      -19.680      75.689     120.840
  C      -18.651      76.941     119.124
  O      -18.033      78.177     118.806
  C      -17.683      75.822     119.500
  O      -16.625      76.340     120.321
  C      -18.583      74.885     120.326
  N      -17.500      70.424     118.056
  C      -16.727      71.304     118.732
  N      -17.084      72.480     119.287
  C      -18.392      72.717     119.098
  C      -19.297      71.926     118.412
  C      -18.808      70.726     117.876
  N      -19.599      69.833     117.182
  N      -20.549      72.507     118.405
  C      -20.403      73.624     119.086
  N      -19.122      73.789     119.539
  O      -23.545      76.176     120.259
  O      -23.698      78.640     119.555
  H      -16.114      75.574     120.655
  H      -23.783      76.575     121.118
  H      -15.683      71.022     118.844
  H      -21.191      74.340     119.282
  H      -18.061      74.450     121.185
  H      -17.221      75.343     118.630
  H      -19.289      76.619     118.293
  H      -18.885      77.567     121.184
  H      -21.374      77.651     121.181
  H      -19.138      69.073     116.706
  H      -20.534      70.125     116.930
  H      -20.651      78.838     120.075
  P      -18.165      78.695     117.292
  C      -17.531      77.642     115.035
  O      -17.348      77.604     116.441
  O      -17.176      79.951     117.293
  O      -19.559      78.963     116.839
  H      -16.313      79.735     117.688
  H      -16.883      76.890     114.579
  H      -17.261      78.627     114.646
  H      -18.570      77.413     114.787
  H      -24.140      77.064     115.856
  H      -22.830      78.025     116.497
  H      -24.477      78.368     116.969

 3  4  5  6  7  8  9  10  11  12  22  25  29  30  31  32 0
 6-311+G(2d,p)
 ****
 33  36  37 0
 6-311+G(2d,p)
 ****
 1  2  13  14  15  16  17  18  19  20  21  23  24  26 0
 3-21G
 ****
 27  28  34  35  38  39  40  41  42  43  44  45  46  47  48 0
 3-21G
 ****


