%nproc=1
%NoSave
%Mem=1900MB
#P OB98/GEN NMR

erre ene a

0 1
  C     -380.024    -971.215     175.225
  O     -380.373    -970.655     176.494
  P     -379.331    -970.559     177.707
  C     -380.055    -972.810     178.739
  O     -378.977    -972.051     178.208
  C     -379.667    -974.294     178.922
  O     -378.330    -974.402     179.450
  C     -380.588    -975.078     179.855
  O     -381.781    -975.433     179.187
  C     -379.659    -976.241     180.217
  O     -379.679    -977.246     179.187
  C     -378.291    -975.563     180.296
  N     -377.493    -977.293     185.043
  C     -377.835    -977.916     183.915
  N     -378.049    -977.386     182.671
  C     -377.816    -976.069     182.686
  C     -377.448    -975.279     183.785
  C     -377.277    -975.952     185.012
  N     -376.937    -975.322     186.172
  N     -377.324    -973.963     183.434
  C     -377.590    -973.941     182.124
  N     -377.896    -975.203     181.648
  O     -379.751    -969.630     178.803
  O     -377.966    -970.045     177.025
  H     -380.620    -977.441     179.014
  H     -377.438    -969.553     177.682
  H     -377.996    -979.002     183.984
  H     -377.578    -973.047     181.512
  H     -377.488    -976.221     179.902
  H     -379.988    -976.724     181.160
  H     -380.794    -974.486     180.744
  H     -379.647    -974.730     177.909
  H     -380.902    -972.734     178.035
  H     -376.873    -975.862     187.026
  H     -376.838    -974.302     186.168
  H     -380.352    -972.383     179.702
  P     -383.138    -974.628     179.491
  C     -383.209    -975.746     181.785
  O     -383.291    -974.523     181.071
  O     -384.338    -975.110     178.755
  O     -382.770    -973.134     179.068
  H     -383.567    -972.667     178.760
  H     -384.170    -976.267     181.724
  H     -382.980    -975.516     182.848
  H     -382.407    -976.373     181.384
  H     -380.871    -971.175     174.572
  H     -379.722    -972.233     175.355
  H     -379.218    -970.656     174.798

 3  4  5  6  7  8  9  10  11  12  22  25  29  30  31  32 0
 6-311+G(2d,p)
 ****
 33  36  37 0
 6-311+G(2d,p)
 ****
 1  2  13  14  15  16  17  18  19  20  21  23  24  26 0
 3-21G
 ****
 27  28  34  35  38  39  40  41  42  43  44  45  46  47  48 0
 3-21G
 ****


