%nproc=1
%NoSave
%Mem=1900MB
#P OB98/GEN NMR

erre ene a

0 1
  C      396.010     -85.974     864.766
  O      395.480     -85.075     865.725
  H      395.207     -86.634     864.425
  H      396.795     -86.587     865.214
  H      396.402     -85.428     863.901
  P      396.425     -83.927     866.317
  C      395.406     -82.321     864.582
  O      396.603     -82.833     865.147
  C      395.575     -80.844     864.226
  O      395.645     -80.067     865.452
  C      396.836     -80.551     863.402
  O      396.521     -79.534     862.451
  C      397.808     -79.998     864.435
  O      398.781     -79.125     863.855
  C      396.866     -79.292     865.406
  N      399.353     -76.200     868.535
  C      398.844     -75.961     867.277
  N      399.024     -74.726     866.760
  N      398.181     -76.868     866.583
  C      398.051     -78.050     867.220
  C      398.522     -78.410     868.468
  C      399.254     -77.409     869.218
  O      399.748     -77.565     870.333
  N      398.214     -79.719     868.769
  C      397.568     -80.149     867.703
  N      397.448     -79.181     866.736
  O      397.710     -84.399     866.923
  O      395.501     -83.178     867.386
  H      399.480     -78.998     864.525
  H      395.712     -83.480     868.290
  H      399.853     -75.473     869.016
  H      397.161     -81.148     867.577
  H      396.606     -78.268     865.079
  H      398.330     -80.830     864.925
  H      399.507     -73.991     867.250
  H      397.242     -81.436     862.899
  H      398.634     -74.532     865.847
  H      394.666     -80.512     863.696
  H      394.595     -82.428     865.318
  H      395.142     -82.896     863.694
  P      397.289     -79.563     861.031
  C      394.927     -79.964     860.075
  O      396.319     -80.257     859.959
  O      398.695     -80.057     861.062
  O      397.221     -78.007     860.585
  H      398.019     -77.822     860.031
  H      394.388     -80.482     859.309
  H      394.774     -78.910     859.968
  H      394.575     -80.280     861.035

 6  7  8  9  10  11  12  13  14  15  26  29  33  34 0
 6-311+G(2d,p)
 ****
 36  38  39  40  41 0
 6-311+G(2d,p)
 ****
 1  2  3  4  5  16  17  18  19  20  21  22  23  24  25 0
 3-21G
 ****
 27  28  30  31  32  35  37  42  43  44  45  46  47 0
 3-21G
 ****
 48  49 0
 3-21G
 ****


