%nproc=1
%NoSave
%Mem=1900MB
#P OB98/GEN NMR

erre ene a

0 1
  C     -721.299    -104.631    1011.485
  O     -722.718    -104.665    1011.434
  P     -723.411    -104.889    1010.007
  C     -723.777    -107.460    1009.563
  O     -724.268    -106.248    1010.131
  C     -724.475    -108.655    1010.220
  O     -724.204    -108.667    1011.633
  C     -725.986    -108.657    1010.093
  O     -726.403    -109.068    1008.784
  C     -726.382    -109.622    1011.211
  O     -726.231    -110.980    1010.781
  C     -725.346    -109.280    1012.295
  N     -725.885    -108.407    1013.341
  C     -726.917    -108.920    1014.107
  O     -727.389    -110.047    1013.937
  N     -727.413    -108.088    1015.083
  C     -727.049    -106.805    1015.308
  O     -727.550    -106.084    1016.167
  C     -725.950    -106.293    1014.454
  C     -725.433    -107.103    1013.518
  O     -722.145    -105.281    1009.108
  O     -724.183    -103.698    1009.540
  H     -721.439    -105.688    1009.640
  H     -726.843    -111.107    1010.037
  H     -728.155    -108.455    1015.665
  H     -725.627    -105.279    1014.614
  H     -724.628    -106.741    1012.872
  H     -724.983    -110.181    1012.776
  H     -727.426    -109.487    1011.514
  H     -726.390    -107.649    1010.306
  H     -724.041    -109.576    1009.788
  H     -722.694    -107.528    1009.742
  H     -723.961    -107.447    1008.485
  P     -727.613    -108.216    1008.124
  C     -726.141    -107.252    1006.186
  O     -727.229    -108.049    1006.573
  O     -727.352    -106.762    1008.749
  O     -728.963    -108.786    1008.401
  H     -726.418    -106.526    1008.772
  H     -725.818    -107.543    1005.179
  H     -725.291    -107.368    1006.862
  H     -726.463    -106.178    1006.170
  H     -720.982    -104.476    1012.495
  H     -720.939    -103.832    1010.871
  H     -720.907    -105.560    1011.127

 3  4  5  6  7  8  9  10  11  12  13  24  28  29  30  31  32 0
 6-311+G(2d,p)
 ****
 33  34 0
 6-311+G(2d,p)
 ****
 1  2  14  15  16  17  18  19  20  21  22  23  25  26  27 0
 3-21G
 ****
 35  36  37  38  39  40  41  42  43  44  45 0
 3-21G
 ****


