%nproc=1
%NoSave
%Mem=1900MB
#P OB98/GEN NMR

erre ene a

0 1
  C      455.512    1066.817    -602.437
  O      456.774    1066.390    -602.950
  P      456.810    1065.076    -603.853
  C      457.265    1066.526    -606.005
  O      456.487    1065.532    -605.371
  C      456.755    1066.803    -607.436
  O      456.867    1065.597    -608.206
  C      455.277    1067.211    -607.529
  O      455.065    1067.842    -608.796
  C      454.593    1065.867    -607.513
  O      453.234    1065.958    -608.002
  C      455.558    1064.982    -608.323
  N      455.598    1063.580    -607.895
  C      454.551    1062.720    -608.236
  O      453.575    1063.072    -608.914
  N      454.615    1061.453    -607.776
  C      455.649    1060.912    -607.026
  O      455.619    1059.795    -606.543
  C      456.789    1061.805    -606.797
  C      456.745    1063.089    -607.230
  O      455.484    1064.263    -603.405
  O      458.047    1064.269    -603.706
  H      453.314    1066.195    -608.958
  H      455.731    1063.505    -602.862
  H      453.838    1060.831    -607.955
  H      457.650    1061.416    -606.284
  H      457.561    1063.748    -607.044
  H      455.270    1064.982    -609.406
  H      454.526    1065.495    -606.480
  H      454.935    1067.858    -606.719
  H      457.387    1067.549    -607.904
  H      458.310    1066.216    -606.035
  H      457.226    1067.457    -605.415
  P      455.358    1069.423    -608.903
  C      457.405    1068.860    -610.365
  O      456.901    1069.577    -609.250
  O      454.822    1070.271    -607.790
  O      454.666    1069.813    -610.298
  H      454.496    1070.767    -610.333
  H      458.247    1069.408    -610.809
  H      456.618    1068.734    -611.121
  H      457.757    1067.866    -610.032
  H      455.646    1067.705    -601.855
  H      455.098    1066.046    -601.822
  H      454.847    1067.021    -603.250

 3  4  5  6  7  8  9  10  11  12  13  23  28  29  30  31  32 0
 6-311+G(2d,p)
 ****
 33  34 0
 6-311+G(2d,p)
 ****
 1  2  14  15  16  17  18  19  20  21  22  24  25  26  27 0
 3-21G
 ****
 35  36  37  38  39  40  41  42  43  44  45 0
 3-21G
 ****


