%nproc=1
%NoSave
%Mem=1900MB
#P OB98/GEN NMR

erre ene a

0 1
  C     -514.740     227.205     305.243
  O     -515.428     225.956     305.134
  P     -516.639     225.690     306.153
  C     -517.519     224.038     304.318
  O     -517.286     224.296     305.697
  C     -517.146     222.597     303.984
  O     -515.723     222.385     304.156
  C     -517.820     221.559     304.873
  O     -519.186     221.393     304.529
  C     -516.940     220.343     304.610
  O     -517.315     219.711     303.373
  C     -515.544     220.983     304.469
  N     -514.710     220.805     305.655
  C     -514.126     219.550     305.797
  O     -514.306     218.626     305.006
  N     -513.338     219.384     306.906
  C     -513.108     220.316     307.873
  O     -512.383     220.113     308.839
  C     -513.791     221.607     307.691
  C     -514.549     221.791     306.608
  O     -517.690     226.793     305.680
  O     -516.227     225.778     307.584
  H     -517.676     226.946     304.717
  H     -518.221     219.367     303.504
  H     -512.893     218.483     307.026
  H     -513.651     222.364     308.454
  H     -515.066     222.734     306.457
  H     -515.012     220.548     303.614
  H     -517.019     219.590     305.401
  H     -517.734     221.857     305.925
  H     -517.394     222.415     302.934
  H     -516.914     224.717     303.708
  H     -518.571     224.240     304.091
  P     -520.265     221.828     305.636
  C     -522.038     222.314     303.778
  O     -521.708     221.628     304.964
  O     -520.064     223.414     305.662
  O     -520.074     221.159     306.959
  H     -519.990     223.805     304.777
  H     -522.880     221.804     303.298
  H     -521.200     222.337     303.077
  H     -522.342     223.338     304.015
  H     -513.962     227.249     304.509
  H     -514.314     227.293     306.220
  H     -515.429     228.007     305.081

 3  4  5  6  7  8  9  10  11  12  13  24  28  29  30  31  32 0
 6-311+G(2d,p)
 ****
 33  34 0
 6-311+G(2d,p)
 ****
 1  2  14  15  16  17  18  19  20  21  22  23  25  26  27 0
 3-21G
 ****
 35  36  37  38  39  40  41  42  43  44  45 0
 3-21G
 ****


