%nproc=1
%NoSave
%Mem=1900MB
#P OB98/GEN NMR

erre ene a

0 1
  C      -32.221     -40.238    -144.111
  O      -32.447     -41.327    -143.219
  P      -31.632     -41.369    -141.841
  C      -29.083     -41.591    -141.160
  O      -30.104     -41.734    -142.124
  C      -27.905     -42.509    -141.528
  O      -28.232     -43.886    -141.240
  C      -27.526     -42.439    -143.006
  O      -26.619     -41.386    -143.273
  C      -26.943     -43.819    -143.245
  O      -25.601     -43.890    -142.730
  C      -27.894     -44.700    -142.401
  N      -29.147     -45.171    -143.028
  C      -29.119     -46.256    -143.902
  O      -28.102     -46.871    -144.208
  N      -30.327     -46.639    -144.425
  C      -31.555     -46.177    -144.046
  O      -32.608     -46.598    -144.506
  C      -31.539     -45.136    -143.011
  C      -30.364     -44.682    -142.568
  O      -32.203     -42.663    -141.100
  O      -31.774     -40.135    -141.002
  H      -25.050     -43.304    -143.279
  H      -32.670     -42.410    -140.281
  H      -30.318     -47.375    -145.116
  H      -32.492     -44.773    -142.645
  H      -30.343     -43.911    -141.802
  H      -27.370     -45.591    -142.035
  H      -26.873     -44.037    -144.309
  H      -28.426     -42.344    -143.622
  H      -27.042     -42.230    -140.911
  H      -29.452     -41.842    -140.161
  H      -28.755     -40.548    -141.124
  P      -26.979     -40.282    -144.376
  C      -27.119     -40.241    -146.938
  O      -26.804     -41.015    -145.794
  O      -26.288     -38.967    -144.237
  O      -28.574     -40.138    -144.256
  H      -28.813     -39.378    -143.678
  H      -26.807     -40.793    -147.829
  H      -26.590     -39.283    -146.910
  H      -28.198     -40.069    -146.984
  H      -32.836     -40.354    -144.979
  H      -31.192     -40.223    -144.402
  H      -32.466     -39.319    -143.621

 3  4  5  6  7  8  9  10  11  12  13  23  28  29  30  31  32 0
 6-311+G(2d,p)
 ****
 33  34 0
 6-311+G(2d,p)
 ****
 1  2  14  15  16  17  18  19  20  21  22  24  25  26  27 0
 3-21G
 ****
 35  36  37  38  39  40  41  42  43  44  45 0
 3-21G
 ****


