%nproc=1
%NoSave
%Mem=1900MB
#P OB98/GEN NMR

erre ene a

0 1
  C      642.732     113.952     346.544
  O      641.960     113.668     347.697
  H      643.406     113.105     346.355
  H      643.335     114.847     346.708
  H      642.083     114.088     345.673
  P      640.789     114.696     348.050
  C      642.267     116.013     349.779
  O      641.481     116.040     348.592
  C      643.531     116.839     349.598
  O      644.219     116.482     348.380
  C      643.268     118.333     349.428
  O      642.867     118.954     350.627
  C      644.640     118.797     348.932
  O      645.574     118.919     350.019
  C      645.035     117.625     347.995
  N      644.865     117.958     346.582
  C      645.688     118.984     346.101
  O      646.504     119.535     346.854
  N      645.555     119.371     344.794
  C      644.692     118.779     344.024
  N      644.604     119.217     342.739
  C      643.825     117.673     344.483
  C      643.952     117.332     345.768
  O      640.157     114.063     349.380
  O      639.805     114.941     346.953
  H      645.123     119.446     350.702
  H      640.811     113.899     350.082
  H      643.126     117.217     343.808
  H      643.355     116.523     346.187
  H      646.083     117.345     348.160
  H      644.589     119.772     348.447
  H      642.545     118.514     348.627
  H      644.203     116.642     350.441
  H      645.204     119.991     342.464
  H      642.508     114.988     350.062
  H      643.948     118.866     342.069
  H      641.654     116.438     350.584
  P      641.353     119.477     350.806
  C      642.470     121.770     351.193
  O      641.400     121.061     350.556
  O      640.684     119.058     352.071
  O      640.624     118.949     349.478
  H      641.009     119.283     348.644
  H      642.399     122.811     350.956
  H      643.407     121.388     350.846
  H      642.403     121.640     352.253

 6  7  8  9  10  11  12  13  14  15  16  26  30  31  32  33  35 0
 6-311+G(2d,p)
 ****
 37  38 0
 6-311+G(2d,p)
 ****
 1  2  3  4  5  17  18  19  20  21  22  23  24  25 0
 3-21G
 ****
 27  28  29  34  36  39  40  41  42  43  44  45  46 0
 3-21G
 ****


