%nproc=1
%NoSave
%Mem=1900MB
#P OB98/GEN NMR

erre ene a

0 1
  C     -343.660     219.933    -774.411
  O     -343.422     221.314    -774.567
  H     -342.714     219.398    -774.523
  H     -344.354     219.587    -775.188
  H     -344.071     219.707    -773.423
  P     -344.565     222.353    -774.136
  C     -343.127     223.403    -772.260
  O     -343.828     223.615    -773.482
  C     -341.854     224.264    -772.207
  O     -340.845     223.681    -773.079
  C     -342.121     225.688    -772.717
  O     -341.233     226.636    -772.124
  C     -341.799     225.570    -774.204
  O     -341.465     226.821    -774.806
  C     -340.638     224.568    -774.188
  N     -339.951     224.707    -779.241
  C     -340.200     225.746    -778.360
  N     -340.276     226.986    -778.907
  N     -340.388     225.583    -777.083
  C     -340.355     224.288    -776.686
  C     -340.137     223.168    -777.467
  C     -339.899     223.365    -778.884
  O     -339.696     222.480    -779.702
  N     -340.193     222.013    -776.719
  C     -340.440     222.432    -775.494
  N     -340.530     223.806    -775.417
  O     -345.246     221.655    -772.860
  O     -345.577     222.675    -775.196
  H     -342.242     227.398    -774.720
  H     -346.145     221.996    -772.727
  H     -339.779     224.894    -780.210
  H     -340.565     221.785    -774.628
  H     -339.689     225.082    -774.028
  H     -342.677     225.191    -774.714
  H     -340.334     227.121    -779.900
  H     -343.145     226.007    -772.569
  H     -340.760     227.695    -778.347
  H     -341.439     224.252    -771.188
  H     -342.873     222.342    -772.225
  H     -343.775     223.615    -771.410
  P     -341.549     228.195    -772.324
  C     -341.597     228.802    -769.744
  O     -341.070     229.014    -771.039
  O     -343.148     228.275    -772.249
  O     -341.015     228.781    -773.601
  H     -343.516     228.568    -773.112
  H     -341.122     229.466    -769.052
  H     -341.418     227.790    -769.447
  H     -342.650     228.990    -769.752

 6  7  8  9  10  11  12  13  14  15  26  29  33  34 0
 6-311+G(2d,p)
 ****
 36  38  39  40  41 0
 6-311+G(2d,p)
 ****
 1  2  3  4  5  16  17  18  19  20  21  22  23  24  25 0
 3-21G
 ****
 27  28  30  31  32  35  37  42  43  44  45  46  47 0
 3-21G
 ****
 48  49 0
 3-21G
 ****


