%nproc=1
%NoSave
%Mem=1900MB
#P OB98/GEN NMR

erre ene a

0 1
  C      142.141    -266.957     235.949
  O      142.277    -268.193     236.636
  P      143.708    -268.919     236.595
  C      143.571    -269.250     234.012
  O      143.714    -269.852     235.287
  C      144.003    -270.221     232.907
  O      143.678    -269.631     231.619
  C      145.503    -270.549     232.888
  O      145.629    -271.897     232.417
  C      146.052    -269.586     231.847
  O      147.299    -270.018     231.311
  C      144.898    -269.569     230.848
  N      146.125    -267.612     226.344
  C      146.356    -268.879     226.853
  N      146.950    -269.764     226.014
  N      146.041    -269.246     228.063
  C      145.441    -268.260     228.779
  C      145.191    -266.958     228.402
  C      145.513    -266.577     227.045
  O      145.249    -265.500     226.523
  N      144.648    -266.232     229.428
  C      144.498    -267.110     230.399
  N      144.916    -268.365     230.037
  O      143.615    -269.961     237.803
  O      144.899    -268.016     236.703
  H      147.619    -269.322     230.697
  H      143.992    -269.585     238.624
  H      146.376    -267.394     225.394
  H      144.087    -266.904     231.375
  H      144.917    -270.431     230.166
  H      146.200    -268.599     232.298
  H      147.193    -269.557     225.058
  H      145.986    -270.438     233.863
  H      147.105    -270.709     226.353
  H      143.413    -271.138     233.005
  H      144.216    -268.363     233.964
  H      142.532    -268.932     233.868
  P      146.847    -272.777     232.976
  C      148.047    -272.641     230.682
  O      147.561    -273.467     231.722
  O      146.099    -274.002     233.693
  O      147.747    -272.065     233.936
  H      146.622    -274.308     234.457
  H      148.824    -273.181     230.133
  H      148.472    -271.707     231.071
  H      147.230    -272.403     229.991
  H      141.141    -266.594     236.063
  H      142.352    -267.101     234.910
  H      142.828    -266.245     236.357

 3  4  5  6  7  8  9  10  11  12  23  26  30  31 0
 6-311+G(2d,p)
 ****
 33  35  36  37  38 0
 6-311+G(2d,p)
 ****
 1  2  13  14  15  16  17  18  19  20  21  22  24  25 0
 3-21G
 ****
 27  28  29  32  34  39  40  41  42  43  44  45  46  47  48  49 0
 3-21G
 ****


