%nproc=1
%NoSave
%Mem=1900MB
#P OB98/GEN NMR

erre ene a

0 1
  C     -304.555     156.132     126.650
  O     -305.245     155.244     127.498
  H     -305.125     157.064     126.587
  H     -304.471     155.714     125.645
  H     -303.563     156.356     127.049
  P     -304.655     153.771     127.742
  C     -304.178     151.743     126.240
  O     -304.814     153.012     126.329
  C     -304.654     150.975     125.007
  O     -306.009     150.496     125.226
  C     -304.665     151.817     123.721
  O     -304.056     151.080     122.658
  C     -306.145     152.004     123.429
  O     -306.414     152.260     122.054
  C     -306.719     150.701     123.990
  N     -308.160     150.772     124.182
  C     -308.934     150.846     123.019
  O     -308.393     150.841     121.912
  N     -310.294     150.979     123.137
  C     -310.830     151.078     124.313
  N     -312.180     151.237     124.359
  C     -310.048     151.034     125.566
  C     -308.731     150.876     125.428
  O     -305.233     153.052     128.914
  O     -303.071     153.977     127.852
  H     -307.388     152.288     121.928
  H     -302.683     153.213     128.339
  H     -310.543     151.126     126.521
  H     -308.075     150.834     126.291
  H     -306.495     149.855     123.326
  H     -306.522     152.858     124.009
  H     -304.153     152.771     123.829
  H     -304.028     150.081     124.892
  H     -312.676     151.269     123.475
  H     -304.398     151.177     127.153
  H     -312.704     151.349     125.213
  H     -303.098     151.903     126.166
  P     -302.539     151.468     122.305
  C     -301.331     153.474     121.188
  O     -302.525     152.985     121.781
  O     -302.233     150.603     120.992
  O     -301.575     151.160     123.402
  H     -301.599     149.892     121.205
  H     -301.472     154.492     120.890
  H     -301.090     152.881     120.330
  H     -300.532     153.417     121.897

 6  7  8  9  10  11  12  13  14  15  16  26  30  31  32  33  35 0
 6-311+G(2d,p)
 ****
 37  38 0
 6-311+G(2d,p)
 ****
 1  2  3  4  5  17  18  19  20  21  22  23  24  25 0
 3-21G
 ****
 27  28  29  34  36  39  40  41  42  43  44  45  46 0
 3-21G
 ****


