%nproc=1
%NoSave
%Mem=1900MB
#P OB98/GEN NMR

erre ene a

0 1
  C      356.128    -120.091     463.094
  O      356.092    -118.800     463.711
  P      355.458    -118.703     465.183
  C      353.298    -118.030     463.862
  O      353.868    -118.710     464.966
  C      351.784    -117.910     464.041
  O      351.136    -119.170     463.741
  C      351.355    -117.560     465.459
  O      351.602    -116.193     465.754
  C      349.884    -117.949     465.417
  O      349.108    -116.915     464.794
  C      349.911    -119.205     464.514
  N      349.788    -120.449     465.262
  C      348.514    -120.744     465.739
  O      347.546    -120.008     465.572
  N      348.397    -121.918     466.433
  C      349.410    -122.787     466.717
  O      349.240    -123.831     467.339
  C      350.744    -122.395     466.232
  C      350.870    -121.262     465.538
  O      355.800    -117.191     465.567
  O      355.995    -119.734     466.118
  H      355.761    -116.587     464.807
  H      348.957    -116.230     465.477
  H      347.478    -122.158     466.776
  H      351.572    -123.050     466.462
  H      351.845    -120.953     465.172
  H      349.091    -119.162     463.784
  H      349.464    -118.116     466.414
  H      351.887    -118.195     466.178
  H      351.417    -117.154     463.338
  H      353.505    -118.576     462.936
  H      353.763    -117.043     463.772
  P      352.479    -115.882     467.066
  C      350.456    -115.284     468.609
  O      351.527    -116.155     468.325
  O      352.582    -114.286     466.994
  O      353.797    -116.584     467.086
  H      351.737    -113.860     466.777
  H      349.744    -115.803     469.254
  H      349.942    -114.969     467.699
  H      350.833    -114.406     469.137
  H      356.572    -120.010     462.124
  H      355.131    -120.469     463.000
  H      356.707    -120.759     463.697

 3  4  5  6  7  8  9  10  11  12  13  24  28  29  30  31  32 0
 6-311+G(2d,p)
 ****
 33  34 0
 6-311+G(2d,p)
 ****
 1  2  14  15  16  17  18  19  20  21  22  23  25  26  27 0
 3-21G
 ****
 35  36  37  38  39  40  41  42  43  44  45 0
 3-21G
 ****


