%nproc=1
%NoSave
%Mem=1900MB
#P OB98/GEN NMR

erre ene a

0 1
  C      325.658     312.784    -166.403
  O      325.554     311.757    -167.367
  H      326.557     313.374    -166.615
  H      325.750     312.359    -165.400
  H      324.783     313.438    -166.455
  P      324.359     310.705    -167.178
  C      325.332     308.374    -166.540
  O      324.848     309.634    -166.082
  C      326.859     308.413    -166.596
  O      327.379     309.062    -165.413
  C      327.511     307.037    -166.628
  O      327.473     306.440    -167.911
  C      328.922     307.379    -166.188
  O      329.734     307.818    -167.286
  C      328.698     308.521    -165.175
  N      328.863     308.062    -163.796
  C      330.054     308.435    -163.175
  O      330.920     309.109    -163.718
  N      330.227     307.969    -161.894
  C      329.372     307.149    -161.218
  O      329.623     306.715    -160.092
  C      328.143     306.771    -161.932
  C      327.948     307.236    -163.171
  O      324.377     309.880    -168.552
  O      323.017     311.310    -166.907
  H      323.616     310.145    -169.105
  H      330.611     308.029    -166.911
  H      331.083     308.226    -161.427
  H      327.440     306.120    -161.424
  H      327.051     306.962    -163.722
  H      329.413     309.336    -165.348
  H      329.417     306.511    -165.749
  H      327.054     306.384    -165.868
  H      327.160     309.000    -167.473
  H      324.942     308.173    -167.539
  H      324.987     307.591    -165.856
  P      327.663     304.844    -167.999
  C      330.009     304.075    -168.921
  O      329.245     304.586    -167.843
  O      327.365     304.599    -169.547
  O      326.784     304.097    -167.053
  H      327.572     305.388    -170.085
  H      331.031     303.976    -168.619
  H      329.946     304.746    -169.752
  H      329.627     303.117    -169.206

 6  7  8  9  10  11  12  13  14  15  16  27  31  32  33  34  35 0
 6-311+G(2d,p)
 ****
 36  37 0
 6-311+G(2d,p)
 ****
 1  2  3  4  5  17  18  19  20  21  22  23  24  25 0
 3-21G
 ****
 26  28  29  30  38  39  40  41  42  43  44  45 0
 3-21G
 ****


