%nproc=1
%NoSave
%Mem=1900MB
#P OB98/GEN NMR

erre ene a

0 1
  C       94.402      27.223      55.358
  O       93.271      28.100      55.386
  P       93.366      29.403      54.452
  C       93.866      31.073      56.371
  O       94.334      30.460      55.177
  C       94.777      32.226      56.805
  O       96.012      31.721      57.396
  C       95.184      33.159      55.657
  O       95.285      34.482      56.202
  C       96.576      32.666      55.302
  O       97.308      33.645      54.562
  C       97.110      32.355      56.700
  N      101.868      31.934      55.066
  C      100.916      32.897      54.795
  N      101.305      33.926      54.008
  N       99.690      32.855      55.250
  C       99.458      31.787      56.054
  C      100.319      30.779      56.412
  C      101.661      30.819      55.874
  O      102.545      29.995      56.088
  N       99.720      29.883      57.273
  C       98.479      30.329      57.372
  N       98.283      31.505      56.700
  O       91.912      30.056      54.589
  O       93.708      29.099      53.029
  H       98.235      33.331      54.497
  H       91.369      29.835      53.809
  H      102.791      32.007      54.672
  H       97.692      29.853      57.936
  H       97.387      33.264      57.249
  H       96.513      31.754      54.695
  H      102.248      34.048      53.666
  H       94.502      33.150      54.801
  H      100.637      34.668      53.828
  H       94.256      32.802      57.580
  H       93.815      30.335      57.175
  H       92.838      31.422      56.214
  P       94.378      35.631      55.552
  C       96.027      37.483      54.802
  O       95.262      36.353      54.428
  O       94.287      36.726      56.718
  O       93.015      35.186      55.126
  H       93.392      37.114      56.736
  H       96.881      37.568      54.129
  H       96.398      37.402      55.830
  H       95.413      38.382      54.713
  H       94.228      26.395      56.014
  H       95.274      27.755      55.678
  H       94.550      26.863      54.361

 3  4  5  6  7  8  9  10  11  12  23  26  30  31 0
 6-311+G(2d,p)
 ****
 33  35  36  37  38 0
 6-311+G(2d,p)
 ****
 1  2  13  14  15  16  17  18  19  20  21  22  24  25 0
 3-21G
 ****
 27  28  29  32  34  39  40  41  42  43  44  45  46  47  48  49 0
 3-21G
 ****


