%nproc=1
%NoSave
%Mem=1900MB
#P OB98/GEN NMR

erre ene a

0 1
  C       27.050     139.327      60.668
  O       27.673     138.182      61.217
  H       27.455     139.503      59.669
  H       27.257     140.201      61.294
  H       25.966     139.172      60.591
  P       27.102     137.641      62.613
  C       26.493     138.795      64.892
  O       27.220     138.850      63.673
  C       26.108     140.209      65.329
  O       25.156     140.800      64.425
  C       25.413     140.268      66.679
  O       26.283     140.007      67.757
  C       24.878     141.694      66.651
  O       25.911     142.640      66.965
  C       24.442     141.828      65.170
  N       23.003     141.721      64.990
  C       22.322     142.935      64.837
  O       22.939     144.004      64.849
  N       20.950     142.909      64.712
  C       20.327     141.775      64.713
  N       18.972     141.811      64.591
  C       21.010     140.471      64.843
  C       22.333     140.519      64.985
  O       28.250     136.635      63.093
  O       25.734     137.043      62.553
  H       25.704     143.448      66.455
  H       29.135     137.037      63.112
  H       20.442     139.550      64.826
  H       22.910     139.610      65.086
  H       24.773     142.793      64.759
  H       24.075     141.846      67.373
  H       24.553     139.586      66.690
  H       27.020     140.825      65.319
  H       18.533     142.728      64.523
  H       27.069     138.292      65.673
  H       18.375     141.000      64.611
  H       25.591     138.201      64.711
  P       25.725     139.953      69.263
  C       24.305     141.645      70.581
  O       25.385     141.467      69.668
  O       26.593     139.226      70.232
  O       24.262     139.310      69.090
  H       23.663     139.820      68.519
  H       24.171     142.689      70.776
  H       24.524     141.136      71.496
  H       23.409     141.244      70.156

 6  7  8  9  10  11  12  13  14  15  16  26  30  31  32  33  35 0
 6-311+G(2d,p)
 ****
 37  38 0
 6-311+G(2d,p)
 ****
 1  2  3  4  5  17  18  19  20  21  22  23  24  25 0
 3-21G
 ****
 27  28  29  34  36  39  40  41  42  43  44  45  46 0
 3-21G
 ****


