%nproc=1
%NoSave
%Mem=1900MB
#P OB98/GEN NMR

erre ene a

0 1
  C      196.349    -123.239     282.522
  O      195.275    -123.148     283.436
  H      197.014    -124.043     282.843
  H      196.912    -122.300     282.512
  H      195.979    -123.462     281.519
  P      194.153    -122.035     283.142
  C      194.419    -120.766     285.400
  O      193.605    -121.608     284.593
  C      193.566    -120.052     286.454
  O      192.618    -119.183     285.787
  C      192.776    -121.010     287.349
  O      192.847    -120.561     288.704
  C      191.351    -120.913     286.827
  O      190.384    -121.232     287.828
  C      191.301    -119.476     286.296
  N      190.284    -119.317     285.257
  C      188.950    -119.316     285.678
  O      188.676    -119.456     286.873
  N      187.955    -119.206     284.736
  C      188.265    -119.168     283.476
  N      187.237    -119.084     282.590
  C      189.656    -119.216     282.986
  C      190.603    -119.287     283.919
  O      192.955    -122.891     282.523
  O      194.595    -120.899     282.283
  H      189.543    -120.798     287.583
  H      192.277    -122.312     282.099
  H      189.866    -119.200     281.922
  H      191.654    -119.330     283.646
  H      191.085    -118.770     287.108
  H      191.221    -121.622     285.999
  H      193.138    -122.034     287.300
  H      194.220    -119.399     287.048
  H      186.293    -119.062     282.967
  H      194.910    -120.026     284.762
  H      187.359    -119.078     281.590
  H      195.180    -121.375     285.900
  P      193.803    -121.414     289.677
  C      193.219    -120.216     291.902
  O      194.204    -120.466     290.912
  O      195.160    -121.555     288.841
  O      193.228    -122.737     290.063
  H      195.204    -122.430     288.411
  H      193.626    -119.574     292.656
  H      192.917    -121.141     292.346
  H      192.372    -119.744     291.451

 6  7  8  9  10  11  12  13  14  15  16  26  30  31  32  33  35 0
 6-311+G(2d,p)
 ****
 37  38 0
 6-311+G(2d,p)
 ****
 1  2  3  4  5  17  18  19  20  21  22  23  24  25 0
 3-21G
 ****
 27  28  29  34  36  39  40  41  42  43  44  45  46 0
 3-21G
 ****


