%nproc=1
%NoSave
%Mem=1900MB
#P OB98/GEN NMR

erre ene a

0 1
  C      275.991     116.865     -93.264
  O      276.867     116.581     -92.190
  P      278.315     117.260     -92.125
  C      279.532     115.398     -93.416
  O      279.155     116.772     -93.400
  C      280.142     115.026     -94.764
  O      279.205     115.268     -95.839
  C      281.378     115.835     -95.131
  O      282.510     115.450     -94.371
  C      281.479     115.554     -96.625
  O      282.098     114.282     -96.864
  C      279.989     115.511     -97.032
  N      279.567     116.726     -97.712
  C      279.976     116.862     -99.040
  O      280.725     116.027     -99.551
  N      279.538     117.950     -99.755
  C      278.856     118.880     -99.159
  N      278.395     119.899     -99.929
  C      278.540     118.848     -97.716
  C      278.903     117.744     -97.065
  O      279.024     117.124     -90.820
  O      278.035     118.803     -92.458
  H      278.467     119.354     -91.777
  H      281.567     113.617     -96.386
  H      278.027     119.680     -97.255
  H      278.692     117.622     -96.007
  H      279.803     114.656     -97.690
  H      282.071     116.306     -97.151
  H      281.180     116.901     -94.974
  H      280.378     113.953     -94.749
  H      278.616     119.877    -100.921
  H      278.642     114.789     -93.233
  H      277.606     120.480     -99.653
  H      280.245     115.212     -92.607
  P      283.623     116.576     -94.108
  C      285.045     115.843     -96.145
  O      284.333     116.886     -95.509
  O      284.746     115.795     -93.277
  O      283.131     117.774     -93.364
  H      285.138     116.392     -92.611
  H      285.161     116.092     -97.200
  H      284.521     114.889     -96.062
  H      286.038     115.755     -95.692
  H      275.078     116.322     -93.133
  H      276.450     116.574     -94.185
  H      275.782     117.914     -93.286

 3  4  5  6  7  8  9  10  11  12  13  24  27  28  29  30  32 0
 6-311+G(2d,p)
 ****
 34  35 0
 6-311+G(2d,p)
 ****
 1  2  14  15  16  17  18  19  20  21  22  23  25  26 0
 3-21G
 ****
 31  33  36  37  38  39  40  41  42  43  44  45  46 0
 3-21G
 ****


