%nproc=1
%NoSave
%Mem=1900MB
#P OB98/GEN NMR

erre ene a

0 1
  C      -34.262     983.393    -229.732
  O      -34.284     981.982    -229.577
  H      -35.025     983.857    -229.098
  H      -33.276     983.761    -229.435
  H      -34.435     983.663    -230.776
  P      -35.643     981.240    -229.995
  C      -38.009     981.011    -228.930
  O      -36.670     981.459    -228.783
  C      -38.603     980.638    -227.578
  O      -37.907     979.494    -227.030
  C      -38.521     981.736    -226.521
  O      -39.542     982.714    -226.679
  C      -38.715     980.903    -225.251
  O      -40.125     980.622    -225.069
  C      -37.958     979.618    -225.579
  N      -35.102     978.983    -221.368
  C      -36.437     978.873    -221.582
  N      -37.121     979.025    -222.741
  C      -36.280     979.324    -223.750
  C      -34.904     979.460    -223.692
  C      -34.304     979.273    -222.429
  N      -32.954     979.458    -222.205
  N      -34.388     979.784    -224.944
  C      -35.444     979.871    -225.724
  N      -36.606     979.593    -225.049
  O      -35.254     979.687    -229.880
  O      -36.165     981.583    -231.351
  H      -40.181     979.932    -224.377
  H      -35.012     979.351    -230.764
  H      -37.034     978.611    -220.716
  H      -35.404     980.130    -226.774
  H      -38.474     978.727    -225.211
  H      -38.375     981.426    -224.352
  H      -37.520     982.189    -226.496
  H      -39.654     980.334    -227.749
  H      -38.031     980.137    -229.600
  H      -32.734     979.772    -221.261
  H      -32.463     979.937    -222.961
  H      -38.597     981.814    -229.397
  P      -39.517     983.980    -225.697
  C      -40.339     984.463    -223.295
  O      -40.173     983.485    -224.309
  O      -40.648     984.931    -226.327
  O      -38.209     984.673    -225.586
  H      -40.250     985.815    -226.521
  H      -40.781     984.010    -222.432
  H      -40.976     985.244    -223.654
  H      -39.385     984.872    -223.034

 6  7  8  9  10  11  12  13  14  15  25  28  32  33  34  35 0
 6-311+G(2d,p)
 ****
 36  39  40 0
 6-311+G(2d,p)
 ****
 1  2  3  4  5  16  17  18  19  20  21  22  23  24 0
 3-21G
 ****
 26  27  29  30  31  37  38  41  42  43  44  45  46  47  48 0
 3-21G
 ****


