%nproc=1
%NoSave
%Mem=1900MB
#P OB98/GEN NMR

erre ene a

0 1
  C      -48.229     -95.769      -8.056
  O      -49.396     -95.596      -8.829
  H      -48.511     -96.160      -7.075
  H      -47.727     -94.809      -7.917
  H      -47.549     -96.479      -8.537
  P      -49.209     -95.178     -10.367
  C      -51.106     -93.406     -10.431
  O      -50.644     -94.670     -10.882
  C      -52.626     -93.424     -10.265
  O      -52.969     -94.342      -9.195
  C      -53.223     -92.057      -9.922
  O      -54.471     -91.918     -10.606
  C      -53.472     -92.138      -8.427
  O      -54.504     -91.254      -7.992
  C      -53.785     -93.629      -8.246
  N      -53.532     -94.067      -6.877
  C      -54.383     -93.563      -5.889
  O      -55.287     -92.782      -6.190
  N      -54.158     -93.906      -4.581
  C      -53.120     -94.620      -4.274
  N      -52.933     -94.902      -2.956
  C      -52.156     -95.117      -5.275
  C      -52.426     -94.813      -6.544
  O      -49.029     -96.580     -11.113
  O      -48.085     -94.237     -10.642
  H      -54.522     -91.261      -7.010
  H      -48.445     -96.495     -11.890
  H      -51.292     -95.687      -4.968
  H      -51.771     -95.128      -7.348
  H      -54.836     -93.835      -8.493
  H      -52.555     -91.876      -7.888
  H      -52.568     -91.222     -10.186
  H      -53.070     -93.824     -11.184
  H      -53.605     -94.527      -2.298
  H      -50.838     -92.644     -11.170
  H      -52.137     -95.409      -2.599
  H      -50.622     -93.160      -9.480
  P      -54.749     -90.509     -11.320
  C      -57.272     -90.816     -11.854
  O      -55.949     -90.706     -12.364
  O      -53.464     -90.307     -12.251
  O      -54.920     -89.377     -10.362
  H      -52.895     -89.604     -11.886
  H      -57.958     -90.942     -12.666
  H      -57.520     -89.927     -11.312
  H      -57.333     -91.661     -11.200

 6  7  8  9  10  11  12  13  14  15  16  26  30  31  32  33  35 0
 6-311+G(2d,p)
 ****
 37  38 0
 6-311+G(2d,p)
 ****
 1  2  3  4  5  17  18  19  20  21  22  23  24  25 0
 3-21G
 ****
 27  28  29  34  36  39  40  41  42  43  44  45  46 0
 3-21G
 ****


