%nproc=1
%NoSave
%Mem=1900MB
#P OB98/GEN NMR

erre ene a

0 1
  C       44.510    -897.490    -616.648
  O       45.255    -897.850    -617.792
  H       45.203    -897.160    -615.872
  H       43.945    -898.350    -616.281
  H       43.821    -896.670    -616.885
  P       44.421    -898.350    -619.061
  C       45.741    -896.900    -620.777
  O       44.503    -897.170    -620.143
  C       46.464    -895.740    -620.082
  O       46.815    -896.140    -618.734
  C       47.776    -895.330    -620.774
  O       47.982    -893.920    -620.529
  C       48.787    -896.140    -620.006
  O       50.121    -895.670    -620.254
  C       48.233    -895.980    -618.595
  N       52.251    -897.270    -615.714
  C       52.023    -896.180    -616.494
  N       50.913    -895.910    -617.226
  C       49.987    -896.870    -617.061
  C       50.075    -898.020    -616.291
  C       51.294    -898.200    -615.584
  N       51.544    -899.290    -614.791
  N       48.930    -898.770    -616.388
  C       48.143    -898.080    -617.207
  N       48.752    -896.940    -617.641
  O       42.898    -898.300    -618.549
  O       44.788    -899.710    -619.580
  H       50.700    -895.920    -619.512
  H       42.631    -899.170    -618.232
  H       52.825    -895.470    -616.554
  H       47.155    -898.360    -617.511
  H       48.434    -894.980    -618.198
  H       48.776    -897.190    -620.321
  H       47.773    -895.500    -621.862
  H       45.768    -894.890    -619.996
  H       45.546    -896.650    -621.832
  H       46.381    -897.800    -620.742
  H       52.441    -899.350    -614.336
  H       50.836    -900.000    -614.717
  P       47.136    -892.840    -621.358
  C       47.023    -890.910    -619.583
  O       46.328    -891.920    -620.334
  O       45.981    -893.760    -621.994
  O       47.898    -892.130    -622.439
  H       45.673    -893.350    -622.829
  H       46.330    -890.394    -618.952
  H       47.478    -890.214    -620.257
  H       47.779    -891.370    -618.981

 6  7  8  9  10  11  12  13  14  15  25  28  32  33  34  35 0
 6-311+G(2d,p)
 ****
 36  37  40 0
 6-311+G(2d,p)
 ****
 1  2  3  4  5  16  17  18  19  20  21  22  23  24 0
 3-21G
 ****
 26  27  29  30  31  38  39 41  42  43  44  45  46  47  48 0
 3-21G
 ****


