%nproc=1
%NoSave
%Mem=1900MB
#P OB98/GEN NMR

erre ene a

0 1
  C      -55.004     230.864     378.295
  O      -55.301     231.151     379.650
  H      -53.990     231.208     378.079
  H      -55.698     231.381     377.626
  H      -55.053     229.789     378.123
  P      -56.820     231.001     380.138
  C      -57.154     233.535     379.784
  O      -57.233     232.450     380.704
  C      -57.261     234.881     380.500
  O      -57.281     235.965     379.546
  C      -58.534     235.052     381.315
  O      -58.645     234.204     382.433
  C      -58.580     236.557     381.515
  O      -57.760     236.986     382.598
  C      -57.988     237.064     380.171
  N      -59.008     237.618     379.293
  C      -59.387     238.930     379.547
  O      -58.927     239.603     380.473
  N      -60.353     239.446     378.724
  C      -60.992     238.774     377.722
  O      -61.864     239.290     377.032
  C      -60.580     237.378     377.520
  C      -59.615     236.871     378.302
  O      -57.084     229.877     381.099
  O      -57.655     230.892     378.778
  H      -57.792     237.961     382.614
  H      -58.567     230.553     378.943
  H      -60.632     240.402     378.889
  H      -61.071     236.811     376.743
  H      -59.289     235.841     378.172
  H      -57.237     237.843     380.358
  H      -59.590     236.921     381.710
  H      -59.394     234.801     380.668
  H      -56.368     235.006     381.127
  H      -57.990     233.433     379.076
  H      -56.214     233.472     379.227
  P      -59.443     232.825     382.432
  C      -60.828     233.258     384.609
  O      -59.850     232.472     383.948
  O      -58.897     231.732     381.578
  O      -60.866     233.274     381.805
  H      -61.197     232.519     381.274
  H      -60.974     232.885     385.601
  H      -61.751     233.207     384.070
  H      -60.497     234.275     384.655

 6  7  8  9  10  11  12  13  14  15  16  26  31  32  33  34  35 0
 6-311+G(2d,p)
 ****
 36  37 0
 6-311+G(2d,p)
 ****
 1  2  3  4  5  17  18  19  20  21  22  23  24  25 0
 3-21G
 ****
 27  28  29  30  38  39  40  41  42  43  44  45 0
 3-21G
 ****


