%nproc=1
%NoSave
%Mem=1900MB
#P OB98/GEN NMR

erre ene a

0 1
  C       79.084      71.190    -109.594
  O       77.786      70.671    -109.368
  P       77.589      69.384    -108.437
  C       77.851      67.815    -110.496
  O       77.074      68.197    -109.383
  C       77.169      66.690    -111.288
  O       77.941      66.464    -112.492
  C       77.113      65.346    -110.571
  O       76.121      64.535    -111.202
  C       78.487      64.783    -110.857
  O       78.537      63.369    -110.690
  C       78.764      65.290    -112.295
  N       80.187      65.625    -112.486
  C       81.071      64.559    -112.621
  O       80.704      63.386    -112.661
  N       82.401      64.882    -112.620
  C       82.907      66.136    -112.453
  O       84.071      66.368    -112.149
  C       81.932      67.233    -112.558
  C       80.632      66.932    -112.544
  O       76.301      69.768    -107.570
  O       78.757      69.046    -107.576
  H       77.760      62.997    -111.169
  H       76.571      70.129    -106.706
  H       83.042      64.099    -112.572
  H       82.307      68.247    -112.582
  H       79.888      67.724    -112.567
  H       78.490      64.539    -113.045
  H       79.208      65.224    -110.158
  H       76.917      65.417    -109.496
  H       76.164      67.013    -111.585
  H       78.841      67.500    -110.155
  H       78.010      68.671    -111.161
  P       74.854      64.081    -110.329
  C       76.317      62.532    -108.898
  O       75.199      62.624    -109.758
  O       73.523      64.214    -110.990
  O       74.966      65.007    -109.025
  H       74.106      65.036    -108.568
  H       76.159      61.705    -108.201
  H       76.462      63.453    -108.327
  H       77.212      62.329    -109.491
  H       79.020      72.044    -110.236
  H       79.692      70.441    -110.057
  H       79.521      71.477    -108.660

 3  4  5  6  7  8  9  10  11  12  13  23  28  29  30  31  32 0
 6-311+G(2d,p)
 ****
 33  34 0
 6-311+G(2d,p)
 ****
 1  2  14  15  16  17  18  19  20  21  22  24  25  26  27 0
 3-21G
 ****
 35  36  37  38  39  40  41  42  43  44  45 0
 3-21G
 ****


