%nproc=1
%NoSave
%Mem=1900MB
#P OB98/GEN NMR

erre ene a

0 1
  C      117.481     114.969     855.893
  O      116.592     115.475     854.927
  P      115.826     114.468     853.932
  C      114.297     116.365     853.128
  O      115.196     115.344     852.741
  C      114.484     117.601     852.243
  O      114.228     117.272     850.857
  C      113.539     118.751     852.572
  O      113.958     119.437     853.739
  C      113.616     119.573     851.285
  O      114.789     120.412     851.298
  C      113.746     118.481     850.217
  N      111.294     118.755     845.755
  C      112.473     119.271     846.171
  N      113.041     119.184     847.385
  C      112.245     118.506     848.235
  C      110.994     117.966     847.967
  C      110.526     118.086     846.647
  N      109.346     117.528     846.208
  N      110.469     117.384     849.105
  C      111.380     117.578     850.039
  N      112.497     118.195     849.547
  O      114.884     113.518     854.593
  O      117.021     113.675     853.206
  H      114.787     120.901     852.141
  H      116.940     112.724     853.400
  H      113.047     119.802     845.410
  H      111.292     117.268     851.074
  H      114.486     118.750     849.446
  H      112.752     120.225     851.154
  H      112.515     118.369     852.690
  H      115.537     117.923     852.335
  H      114.490     116.626     854.165
  H      109.182     117.552     845.205
  H      108.932     116.787     846.757
  H      113.261     115.994     853.037
  P      112.868     119.936     854.805
  C      114.765     120.475     856.458
  O      113.612     120.963     855.785
  O      112.081     118.856     855.483
  O      111.919     120.892     853.928
  H      111.007     120.843     854.289
  H      114.448     119.841     857.299
  H      115.329     121.315     856.842
  H      115.393     119.886     855.766
  H      117.893     115.779     856.458
  H      118.271     114.436     855.406
  H      116.956     114.307     856.549

 3  4  5  6  7  8  9  10  11  12  22  25  29  30  31  32 0
 6-311+G(2d,p)
 ****
 33  36  37 0
 6-311+G(2d,p)
 ****
 1  2  13  14  15  16  17  18  19  20  21  23  24  26 0
 3-21G
 ****
 27  28  34  35  38  39  40  41  42  43  44  45  46  47  48 0
 3-21G
 ****


