%nproc=1
%NoSave
%Mem=1900MB
#P OB98/GEN NMR

erre ene a

0 1
  C      657.455     356.450     865.479
  O      656.888     357.709     865.822
  P      657.746     359.023     865.469
  C      656.745     359.155     863.075
  O      657.919     359.007     863.870
  C      656.854     360.387     862.190
  O      656.684     361.573     862.987
  C      658.195     360.554     861.489
  O      658.292     359.751     860.328
  C      658.160     362.035     861.139
  O      657.403     362.227     859.934
  C      657.420     362.643     862.344
  N      660.200     366.724     863.466
  C      659.414     366.467     862.360
  N      659.336     367.446     861.435
  N      658.760     365.343     862.178
  C      658.901     364.475     863.205
  C      659.655     364.612     864.346
  C      660.411     365.836     864.515
  O      661.175     366.091     865.439
  N      659.537     363.516     865.165
  C      658.683     362.729     864.531
  N      658.294     363.257     863.323
  O      659.204     358.667     866.001
  O      657.229     360.292     866.061
  H      656.509     361.867     860.088
  H      659.698     359.483     866.206
  H      660.664     367.607     863.566
  H      658.328     361.780     864.911
  H      656.683     363.393     862.015
  H      659.156     362.455     860.961
  H      659.707     368.371     861.576
  H      659.022     360.362     862.183
  H      658.731     367.295     860.638
  H      656.039     360.353     861.450
  H      655.872     359.261     863.726
  H      656.620     358.249     862.457
  P      659.774     359.345     859.861
  C      659.563     356.889     860.695
  O      660.209     358.143     860.832
  O      660.669     360.577     860.338
  O      659.911     359.086     858.401
  H      661.474     360.655     859.786
  H      659.340     356.663     859.649
  H      658.631     356.895     861.275
  H      660.220     356.112     861.089
  H      656.785     355.667     865.767
  H      658.387     356.328     865.990
  H      657.619     356.409     864.422

 3  4  5  6  7  8  9  10  11  12  23  26  30  31  33  0
 6-311+G(2d,p)
 ****
 35  36  37  38 0
 6-311+G(2d,p)
 ****
 1  2  13  14  15  16  17  18  19  20  21  22  24  25  27  28  29 0
 3-21G
 ****
 32  34  39  40  41  42  43  44  45  46  47  48  49 0
 3-21G
 ****


