%nproc=1
%NoSave
%Mem=1900MB
#P OB98/GEN NMR

erre ene a

0 1
  C      -26.851      80.070     -67.079
  O      -27.333      79.804     -65.760
  P      -27.511      78.285     -65.284
  C      -25.150      78.287     -64.248
  O      -26.527      78.008     -64.046
  C      -24.348      78.076     -62.953
  O      -24.669      79.124     -62.000
  C      -24.637      76.725     -62.284
  O      -23.453      75.990     -61.970
  C      -25.521      77.094     -61.106
  O      -25.487      76.131     -60.064
  C      -25.043      78.508     -60.754
  N      -26.070      79.273     -60.042
  C      -26.227      78.999     -58.690
  O      -25.607      78.110     -58.107
  N      -27.172      79.741     -58.032
  C      -28.010      80.652     -58.602
  O      -28.872      81.257     -57.978
  C      -27.842      80.855     -60.050
  C      -26.895      80.167     -60.691
  O      -27.473      77.257     -66.363
  O      -28.953      78.303     -64.572
  H      -26.021      76.469     -59.312
  H      -29.407      77.466     -64.793
  H      -27.285      79.565     -57.045
  H      -28.504      81.554     -60.539
  H      -26.758      80.286     -61.757
  H      -24.158      78.473     -60.109
  H      -26.559      77.152     -61.458
  H      -25.190      76.058     -62.955
  H      -23.288      78.156     -63.211
  H      -25.032      79.323     -64.570
  H      -24.770      77.667     -65.066
  P      -23.295      74.408     -62.146
  C      -22.609      73.512     -64.479
  O      -22.198      74.135     -63.279
  O      -24.565      73.641     -62.303
  O      -22.549      73.970     -60.796
  H      -22.925      73.127     -60.482
  H      -21.732      73.073     -64.963
  H      -23.042      74.262     -65.149
  H      -23.341      72.723     -64.289
  H      -26.793      81.128     -67.231
  H      -27.521      79.643     -67.796
  H      -25.879      79.638     -67.197

 3  4  5  6  7  8  9  10  11  12  13  23  28  29  30  31  32 0
 6-311+G(2d,p)
 ****
 33  34 0
 6-311+G(2d,p)
 ****
 1  2  14  15  16  17  18  19  20  21  22  24  25  26  27 0
 3-21G
 ****
 35  36  37  38  39  40  41  42  43  44  45 0
 3-21G
 ****


