%nproc=1
%NoSave
%Mem=1900MB
#P OB98/GEN NMR

erre ene a

0 1
  C      122.792     139.324     160.848
  O      121.838     140.238     161.360
  P      122.328     141.715     161.756
  C      122.479     141.405     164.361
  O      123.151     141.574     163.126
  C      123.468     140.975     165.451
  O      122.769     140.924     166.725
  C      124.110     139.601     165.222
  O      125.453     139.670     165.720
  C      123.267     138.686     166.091
  O      123.937     137.483     166.435
  C      122.977     139.609     167.282
  N      121.816     139.197     168.071
  C      122.045     138.625     169.319
  O      123.170     138.425     169.785
  N      120.926     138.251     170.018
  C      119.638     138.331     169.580
  O      118.675     137.964     170.243
  C      119.459     138.899     168.236
  C      120.535     139.306     167.558
  O      120.947     142.391     162.196
  O      123.052     142.420     160.660
  H      120.349     141.771     162.649
  H      123.346     136.963     167.010
  H      121.071     137.867     170.944
  H      118.450     138.965     167.844
  H      120.428     139.729     166.567
  H      123.859     139.672     167.931
  H      122.347     138.423     165.557
  H      124.119     139.311     164.166
  H      124.242     141.751     165.536
  H      121.714     140.634     164.252
  H      121.979     142.343     164.631
  P      126.639     139.117     164.782
  C      127.179     136.942     166.137
  O      126.683     137.527     164.956
  O      127.917     139.603     165.629
  O      126.638     139.645     163.384
  H      127.851     139.380     166.572
  H      126.822     135.909     166.199
  H      126.837     137.482     167.025
  H      128.272     136.933     166.112
  H      122.313     138.391     160.634
  H      123.564     139.171     161.573
  H      123.219     139.720     159.950

 3  4  5  6  7  8  9  10  11  12  13  24  28  29  30  31  32 0
 6-311+G(2d,p)
 ****
 33  34 0
 6-311+G(2d,p)
 ****
 1  2  14  15  16  17  18  19  20  21  22  23  25  26  27 0
 3-21G
 ****
 35  36  37  38  39  40  41  42  43  44  45 0
 3-21G
 ****


