%nproc=1
%NoSave
%Mem=1900MB
#P OB98/GEN NMR

erre ene a

0 1
  C     -435.233    -582.691      96.302
  O     -435.055    -581.888      95.153
  H     -436.179    -582.412      96.779
  H     -434.415    -582.524      97.015
  H     -435.274    -583.745      96.020
  P     -433.695    -582.116      94.324
  C     -432.904    -579.736      93.728
  O     -433.639    -580.873      93.303
  C     -433.237    -578.520      92.860
  O     -433.021    -578.868      91.469
  C     -434.695    -578.055      92.996
  O     -434.744    -576.628      92.947
  C     -435.369    -578.625      91.760
  O     -436.525    -577.885      91.377
  C     -434.227    -578.595      90.741
  N     -436.119    -579.318      86.053
  C     -435.952    -578.204      86.802
  N     -435.426    -578.097      88.028
  C     -435.004    -579.306      88.484
  C     -435.112    -580.529      87.837
  C     -435.713    -580.498      86.571
  N     -435.919    -581.641      85.816
  N     -434.617    -581.531      88.643
  C     -434.198    -580.933      89.736
  N     -434.423    -579.586      89.691
  O     -433.535    -583.460      93.700
  O     -432.577    -581.722      95.403
  H     -436.929    -578.329      90.601
  H     -432.828    -580.911      95.888
  H     -436.289    -577.271      86.336
  H     -433.731    -581.425      90.590
  H     -434.129    -577.614      90.255
  H     -435.678    -579.661      91.955
  H     -435.158    -578.411      93.915
  H     -432.541    -577.708      93.107
  H     -431.823    -579.940      93.667
  H     -436.345    -581.545      84.906
  H     -435.609    -582.541      86.178
  H     -433.158    -579.534      94.774
  P     -435.361    -575.859      94.201
  C     -436.452    -573.905      92.875
  O     -435.458    -574.287      93.840
  O     -434.769    -576.155      95.531
  O     -436.914    -576.298      94.154
  H     -437.231    -576.405      95.069
  H     -436.415    -572.846      92.725
  H     -437.422    -574.180      93.234
  H     -436.260    -574.404      91.948

 6  7  8  9  10  11  12  13  14  15  25  28  32  33  34  35 0
 6-311+G(2d,p)
 ****
 36  39  40 0
 6-311+G(2d,p)
 ****
 1  2  3  4  5  16  17  18  19  20  21  22  23  24 0
 3-21G
 ****
 26  27  29  30  31  37  38  41  42  43  44  45  46  47 0
 3-21G
 ****
 48 0
 3-21G
 ****


