%nproc=1
%NoSave
%Mem=1900MB
#P OB98/GEN NMR

erre ene a

0 1
  C     -257.870      94.839      41.001
  O     -258.713      95.446      40.021
  P     -259.746      96.582      40.477
  C     -261.616      95.132      39.460
  O     -261.088      96.443      39.608
  C     -262.745      95.113      38.424
  O     -263.777      96.083      38.768
  C     -262.254      95.469      37.010
  O     -263.010      94.756      36.019
  C     -262.603      96.938      36.890
  O     -262.674      97.354      35.527
  C     -263.929      96.981      37.648
  N     -266.782     101.127      36.706
  C     -266.722      99.920      36.099
  N     -265.955      98.859      36.419
  C     -265.200      99.124      37.497
  C     -265.162     100.301      38.227
  C     -265.998     101.344      37.789
  N     -266.039     102.579      38.393
  N     -264.262     100.207      39.274
  C     -263.732      99.006      39.143
  N     -264.288      98.305      38.109
  O     -259.189      97.965      40.560
  O     -260.221      96.070      41.922
  H     -263.109      98.226      35.509
  H     -260.268      96.832      42.532
  H     -267.371      99.800      35.237
  H     -262.937      98.607      39.756
  H     -264.759      96.603      37.035
  H     -261.841      97.544      37.393
  H     -261.187      95.282      36.841
  H     -263.219      94.126      38.428
  H     -261.989      94.775      40.422
  H     -266.577     103.302      37.937
  H     -265.352     102.802      39.102
  H     -260.806      94.451      39.179
  P     -262.424      93.322      35.577
  C     -262.745      93.798      33.027
  O     -263.074      93.006      34.149
  O     -262.585      92.268      36.623
  O     -260.898      93.677      35.251
  H     -260.773      94.434      34.661
  H     -263.186      93.346      32.136
  H     -261.663      93.855      32.891
  H     -263.157      94.804      33.148
  H     -257.246      94.107      40.531
  H     -258.474      94.367      41.748
  H     -257.258      95.588      41.458

 3  4  5  6  7  8  9  10  11  12  22  25  29  30  31  32 0
 6-311+G(2d,p)
 ****
 33  36  37 0
 6-311+G(2d,p)
 ****
 1  2  13  14  15  16  17  18  19  20  21  23  24  26 0
 3-21G
 ****
 27  28  34  35  38  39  40  41  42  43  44  45  46  47  48 0
 3-21G
 ****


