%nproc=1
%NoSave
%Mem=1900MB
#P OB98/GEN NMR

erre ene a

0 1
  C     1397.627       4.478     266.294
  O     1397.346       5.486     265.343
  P     1396.756       5.122     263.885
  C     1397.812       3.763     261.979
  O     1398.040       4.707     263.020
  C     1399.145       3.308     261.380
  O     1399.912       2.689     262.439
  C     1399.062       2.274     260.274
  O     1398.842       2.806     258.978
  C     1400.456       1.669     260.343
  O     1401.394       2.539     259.678
  C     1400.733       1.630     261.827
  N     1402.552      -2.993     263.027
  C     1403.126      -1.921     262.460
  N     1402.579      -0.727     262.154
  C     1401.287      -0.682     262.540
  C     1400.555      -1.711     263.134
  C     1401.253      -2.910     263.393
  N     1400.662      -4.003     263.989
  N     1399.261      -1.294     263.370
  C     1399.212      -0.077     262.937
  N     1400.413       0.363     262.437
  O     1395.884       6.169     263.294
  O     1396.001       3.716     264.118
  H     1402.283       2.206     259.897
  H     1395.407       3.555     263.354
  H     1404.182      -2.030     262.202
  H     1398.336       0.578     262.975
  H     1401.778       1.883     262.080
  H     1400.540       0.690     259.837
  H     1398.321       1.475     260.501
  H     1399.698       4.200     261.052
  H     1397.236       4.275     261.203
  H     1401.253      -4.786     264.237
  H     1399.732      -3.884     264.394
  H     1397.236       2.915     262.343
  P     1398.275       1.798     257.849
  C     1399.388      -0.067     256.389
  O     1399.533       0.936     257.368
  O     1397.498       2.451     256.764
  O     1397.418       0.749     258.706
  H     1397.946       0.185     259.310
  H     1400.402      -0.402     256.081
  H     1398.902       0.348     255.506
  H     1398.835      -0.904     256.773
  H     1398.007       4.927     267.188
  H     1398.356       3.804     265.895
  H     1396.730       3.940     266.519

 3  4  5  6  7  8  9  10  11  12  22  25  29  30  31  32 0
 6-311+G(2d,p)
 ****
 33  36  37 0
 6-311+G(2d,p)
 ****
 1  2  13  14  15  16  17  18  19  20  21  23  24  26 0
 3-21G
 ****
 27  28  34  35  38  39  40  41  42  43  44  45  46  47  48 0
 3-21G
 ****


