%nproc=1
%NoSave
%Mem=1900MB
#P OB98/GEN NMR

erre ene a

0 1
  C     -715.768     401.497     -72.895
  O     -715.577     400.153     -73.281
  H     -714.858     401.840     -72.392
  H     -716.602     401.559     -72.195
  H     -715.950     402.144     -73.755
  P     -716.627     399.487     -74.296
  C     -714.891     398.940     -76.125
  O     -716.041     399.698     -75.771
  C     -713.688     399.855     -76.389
  O     -713.375     400.591     -75.171
  C     -712.410     399.090     -76.828
  O     -711.685     399.962     -77.696
  C     -711.687     398.937     -75.499
  O     -710.325     398.635     -75.687
  C     -711.993     400.286     -74.848
  N     -711.774     400.275     -73.399
  C     -710.744     401.080     -72.914
  O     -710.019     401.756     -73.652
  N     -710.530     401.062     -71.566
  C     -711.193     400.252     -70.677
  O     -710.941     400.242     -69.463
  C     -712.248     399.395     -71.249
  C     -712.481     399.435     -72.545
  O     -718.050     399.908     -74.123
  O     -716.446     397.903     -74.086
  H     -709.852     398.646     -74.832
  H     -717.285     397.446     -74.246
  H     -709.797     401.637     -71.193
  H     -712.785     398.738     -70.564
  H     -713.250     398.814     -72.999
  H     -711.378     401.080     -75.274
  H     -712.132     398.122     -74.912
  H     -712.617     398.149     -77.318
  H     -713.983     400.599     -77.148
  H     -715.125     398.368     -77.025
  H     -714.649     398.245     -75.304
  P     -711.265     399.542     -79.180
  C     -712.398     401.465     -80.463
  O     -712.379     400.056     -80.219
  O     -710.929     398.095     -79.341
  O     -709.986     400.445     -79.528
  H     -709.410     399.987     -80.164
  H     -713.172     401.695     -81.165
  H     -711.453     401.771     -80.862
  H     -712.583     401.983     -79.545

 6  7  8  9  10  11  12  13  14  15  16  26  31  32  33  34  35 0
 6-311+G(2d,p)
 ****
 36  37 0
 6-311+G(2d,p)
 ****
 1  2  3  4  5  17  18  19  20  21  22  23  24  25 0
 3-21G
 ****
 27  28  29  30  38  39  40  41  42  43  44  45 0
 3-21G
 ****


