%nproc=1
%NoSave
%Mem=1900MB
#P OB98/GEN NMR

erre ene a

0 1
  C       77.064      14.917     279.729
  O       76.409      14.049     280.641
  P       75.927      14.571     282.081
  C       77.185      12.587     283.151
  O       77.007      13.994     283.117
  C       78.673      12.253     283.282
  O       79.370      12.683     282.096
  C       79.372      12.943     284.447
  O       79.053      12.316     285.680
  C       80.829      12.838     284.011
  O       81.342      11.526     284.293
  C       80.720      13.038     282.484
  N       81.048      14.400     282.065
  C       82.406      14.728     282.031
  O       83.268      13.904     282.337
  N       82.766      15.986     281.621
  C       81.851      16.850     281.290
  N       82.271      18.060     280.825
  C       80.410      16.561     281.362
  C       80.082      15.329     281.749
  O       74.510      14.259     282.422
  O       76.255      16.135     282.071
  H       82.299      11.549     284.094
  H       75.526      16.694     281.711
  H       79.688      17.316     281.091
  H       79.043      15.028     281.806
  H       81.381      12.335     281.959
  H       81.486      13.566     284.498
  H       79.078      13.999     284.496
  H       78.776      11.160     283.366
  H       83.261      18.151     280.628
  H       76.806      12.161     282.213
  H       81.661      18.661     280.289
  H       76.613      12.168     283.985
  P       78.027      13.069     286.654
  C       80.052      13.306     288.259
  O       78.927      13.933     287.660
  O       77.442      11.883     287.556
  O       76.949      13.826     285.948
  H       76.556      11.621     287.237
  H       80.681      14.074     288.712
  H       80.640      12.769     287.503
  H       79.725      12.615     289.035
  H       77.302      14.381     278.834
  H       77.965      15.287     280.173
  H       76.420      15.738     279.492

 3  4  5  6  7  8  9  10  11  12  13  23  27  28  29  30  32 0
 6-311+G(2d,p)
 ****
 34  35 0
 6-311+G(2d,p)
 ****
 1  2  14  15  16  17  18  19  20  21  22  24  25  26 0
 3-21G
 ****
 31  33  36  37  38  39  40  41  42  43  44  45  46 0
 3-21G
 ****


