%nproc=1
%NoSave
%Mem=1900MB
#P OB98/GEN NMR

erre ene a

0 1
  C     -116.036     -14.488     154.573
  O     -114.780     -14.080     154.070
  H     -116.702     -13.622     154.601
  H     -115.922     -14.875     155.588
  H     -116.480     -15.254     153.930
  P     -113.719     -15.230     153.722
  C     -113.832     -15.142     151.126
  O     -113.084     -14.848     152.296
  C     -113.586     -14.070     150.065
  O     -114.274     -12.852     150.470
  C     -112.106     -13.716     149.867
  O     -111.891     -13.437     148.480
  C     -111.950     -12.434     150.663
  O     -110.858     -11.626     150.247
  C     -113.314     -11.778     150.423
  N     -113.625     -10.751     151.414
  C     -113.108      -9.477     151.199
  O     -112.483      -9.133     150.198
  N     -113.337      -8.571     152.202
  C     -113.991      -8.813     153.374
  O     -114.145      -7.963     154.244
  C     -114.506     -10.178     153.547
  C     -114.300     -11.070     152.576
  O     -114.648     -16.488     153.389
  O     -112.718     -15.523     154.788
  H     -114.830     -17.002     154.198
  H     -111.140     -11.145     149.442
  H     -112.968      -7.643     152.063
  H     -115.021     -10.410     154.470
  H     -114.648     -12.092     152.681
  H     -113.357     -11.345     149.417
  H     -111.812     -12.669     151.725
  H     -111.411     -14.494     150.200
  H     -114.040     -14.396     149.122
  H     -114.898     -15.162     151.372
  H     -113.538     -16.128     150.748
  P     -110.370     -13.355     147.972
  C     -110.665     -15.483     146.473
  O     -110.350     -14.101     146.553
  O     -109.656     -14.378     148.971
  O     -109.824     -11.967     147.988
  H     -110.219     -15.136     149.206
  H     -110.600     -15.805     145.455
  H     -111.659     -15.644     146.836
  H     -109.973     -16.042     147.068

 6  7  8  9  10  11  12  13  14  15  16  27  31  32  33  34  35 0
 6-311+G(2d,p)
 ****
 36  37 0
 6-311+G(2d,p)
 ****
 1  2  3  4  5  17  18  19  20  21  22  23  24  25 0
 3-21G
 ****
 26  28  29  30  38  39  40  41  42  43  44  45 0
 3-21G
 ****


