%nproc=1
%NoSave
%Mem=1900MB
#P OB98/GEN NMR

erre ene a

0 1
  C     -144.912    -751.922    -319.326
  O     -144.258    -751.700    -318.092
  H     -145.945    -751.579    -319.242
  H     -144.917    -752.992    -319.559
  H     -144.413    -751.370    -320.122
  P     -142.736    -752.197    -317.976
  C     -141.567    -754.485    -317.572
  O     -142.783    -753.792    -317.830
  C     -141.511    -754.899    -316.101
  O     -141.372    -753.722    -315.270
  C     -142.762    -755.607    -315.608
  O     -142.806    -756.968    -316.007
  C     -142.620    -755.433    -314.102
  O     -141.767    -756.447    -313.541
  C     -141.967    -754.037    -313.989
  N     -142.926    -753.013    -313.563
  C     -142.612    -752.354    -312.373
  O     -141.602    -752.597    -311.708
  N     -143.520    -751.429    -311.953
  C     -144.714    -751.129    -312.567
  O     -145.519    -750.337    -312.095
  C     -144.976    -751.849    -313.818
  C     -144.094    -752.755    -314.254
  O     -142.296    -751.693    -316.518
  O     -141.823    -751.693    -319.046
  H     -141.744    -750.895    -316.596
  H     -141.713    -756.258    -312.584
  H     -143.318    -750.943    -311.086
  H     -145.907    -751.631    -314.333
  H     -144.279    -753.311    -315.166
  H     -141.149    -754.053    -313.258
  H     -143.576    -755.511    -313.586
  H     -143.659    -755.063    -315.934
  H     -140.621    -755.531    -315.954
  H     -140.720    -753.828    -317.789
  H     -141.516    -755.362    -318.226
  P     -144.229    -757.717    -316.021
  C     -145.373    -759.476    -314.442
  O     -144.313    -758.561    -314.656
  O     -143.980    -758.824    -317.152
  O     -145.388    -756.804    -316.273
  H     -143.072    -759.165    -317.158
  H     -145.257    -759.938    -313.484
  H     -145.356    -760.227    -315.204
  H     -146.307    -758.955    -314.476

 6  7  8  9  10  11  12  13  14  15  16  27  31  32  33  34  35 0
 6-311+G(2d,p)
 ****
 36  37 0
 6-311+G(2d,p)
 ****
 1  2  3  4  5  17  18  19  20  21  22  23  24  25 0
 3-21G
 ****
 26  28  29  30  38  39  40  41  42  43  44  45 0
 3-21G
 ****


