%nproc=1
%NoSave
%Mem=1900MB
#P OB98/GEN NMR

erre ene a

0 1
  C      198.582    -188.218     -33.815
  O      199.275    -187.447     -34.776
  H      197.638    -188.580     -34.231
  H      199.198    -189.079     -33.545
  H      198.391    -187.625     -32.917
  P      198.543    -186.121     -35.305
  C      200.841    -185.044     -35.868
  O      199.562    -185.445     -36.345
  C      201.690    -184.551     -37.034
  O      202.037    -185.655     -37.898
  C      200.996    -183.529     -37.927
  O      201.047    -182.222     -37.385
  C      201.842    -183.638     -39.183
  O      203.084    -182.935     -38.996
  C      202.092    -185.148     -39.263
  N      200.498    -186.081     -44.033
  C      201.493    -185.310     -43.551
  N      201.851    -185.110     -42.267
  C      201.058    -185.810     -41.439
  C      200.000    -186.635     -41.785
  C      199.727    -186.766     -43.157
  N      198.703    -187.542     -43.653
  N      199.399    -187.155     -40.655
  C      200.106    -186.680     -39.652
  N      201.114    -185.854     -40.071
  O      198.600    -185.132     -34.047
  O      197.155    -186.308     -35.822
  H      202.851    -182.013     -38.772
  H      197.920    -184.438     -34.135
  H      202.081    -184.780     -44.297
  H      199.929    -186.903     -38.607
  H      203.082    -185.391     -39.664
  H      201.360    -183.207     -40.063
  H      199.967    -183.828     -38.160
  H      202.624    -184.143     -36.625
  H      201.332    -185.899     -35.398
  H      198.480    -187.422     -44.630
  H      198.038    -187.931     -43.004
  H      200.713    -184.251     -35.125
  P      199.726    -181.317     -37.512
  C      200.044    -180.046     -35.264
  O      200.031    -179.977     -36.688
  O      198.668    -182.089     -36.596
  O      199.235    -181.123     -38.910
  H      197.755    -181.909     -36.892
  H      200.260    -179.078     -34.862
  H      200.795    -180.740     -34.947
  H      199.087    -180.372     -34.914

 6  7  8  9  10  11  12  13  14  15  25  28  32  33  34  35 0
 6-311+G(2d,p)
 ****
 36  39  40 0
 6-311+G(2d,p)
 ****
 1  2  3  4  5  16  17  18  19  20  21  22  23  24 0
 3-21G
 ****
 26  27  29  30  31  37  38  41  42  43  44  45  46  47 0
 3-21G
 ****
 48 0
 3-21G
 ****


