%nproc=1
%NoSave
%Mem=1900MB
#P OB98/GEN NMR

erre ene a

0 1
  C      175.503    -320.366    -150.914
  O      175.857    -321.590    -151.558
  P      174.965    -322.883    -151.234
  C      176.518    -324.204    -149.582
  O      175.369    -323.400    -149.770
  C      177.495    -323.549    -148.586
  O      176.741    -323.105    -147.428
  C      178.580    -324.465    -148.036
  O      179.632    -323.662    -147.494
  C      177.851    -325.169    -146.913
  O      178.756    -325.773    -145.991
  C      176.961    -324.044    -146.341
  N      175.665    -324.519    -145.813
  C      175.602    -324.927    -144.482
  O      176.560    -324.915    -143.713
  N      174.387    -325.396    -144.053
  C      173.248    -325.458    -144.794
  O      172.211    -325.969    -144.387
  C      173.336    -324.889    -146.147
  C      174.521    -324.463    -146.589
  O      175.550    -323.997    -152.219
  O      173.501    -322.667    -151.429
  H      178.226    -326.005    -145.191
  H      174.932    -324.147    -152.959
  H      174.343    -325.754    -143.112
  H      172.430    -324.858    -146.743
  H      174.606    -324.059    -147.596
  H      177.470    -323.514    -145.525
  H      177.226    -325.970    -147.321
  H      178.990    -325.171    -148.763
  H      177.938    -322.660    -149.051
  H      177.012    -324.378    -150.539
  H      176.218    -325.188    -149.199
  P      180.889    -323.333    -148.433
  C      182.205    -325.480    -147.918
  O      181.489    -324.747    -148.893
  O      181.877    -322.358    -147.885
  O      180.198    -322.791    -149.777
  H      180.851    -322.286    -150.296
  H      182.107    -326.545    -148.132
  H      181.827    -325.285    -146.909
  H      183.264    -325.204    -147.965
  H      176.178    -319.594    -151.220
  H      175.562    -320.491    -149.853
  H      174.504    -320.096    -151.186

 3  4  5  6  7  8  9  10  11  12  13  23  28  29  30  31  32 0
 6-311+G(2d,p)
 ****
 33  34 0
 6-311+G(2d,p)
 ****
 1  2  14  15  16  17  18  19  20  21  22  24  25  26  27 0
 3-21G
 ****
 35  36  37  38  39  40  41  42  43  44  45 0
 3-21G
 ****


