%nproc=1
%NoSave
%Mem=1900MB
#P OB98/GEN NMR

erre ene a

0 1
  C      -95.710     148.005      69.854
  O      -94.923     149.000      69.224
  H      -96.119     148.416      70.782
  H      -95.105     147.128      70.103
  H      -96.537     147.710      69.204
  P      -94.085     148.590      67.920
  C      -92.283     146.788      67.471
  O      -92.937     147.601      68.440
  C      -90.801     146.658      67.810
  O      -90.120     147.904      67.557
  C      -90.547     146.337      69.277
  O      -90.820     144.977      69.549
  C      -89.096     146.754      69.413
  O      -88.212     145.747      68.903
  C      -89.055     148.023      68.529
  N      -89.185     149.253      69.303
  C      -88.069     149.624      70.061
  O      -87.051     148.934      70.049
  N      -88.150     150.759      70.829
  C      -89.234     151.469      70.829
  N      -89.247     152.581      71.614
  C      -90.427     151.121      70.035
  C      -90.336     150.011      69.304
  O      -93.591     149.709      67.055
  O      -95.076     147.612      67.130
  H      -88.287     144.991      69.518
  H      -95.638     148.119      66.515
  H      -91.307     151.745      70.062
  H      -91.168     149.684      68.689
  H      -88.116     148.070      67.964
  H      -88.828     146.935      70.453
  H      -91.150     146.989      69.917
  H      -90.361     145.895      67.156
  H      -88.408     152.775      72.151
  H      -92.408     147.277      66.500
  H      -89.998     153.253      71.626
  H      -92.747     145.796      67.422
  P      -91.327     144.523      71.002
  C      -90.268     144.525      73.354
  O      -90.032     144.604      71.951
  O      -92.071     143.230      71.041
  O      -92.202     145.775      71.488
  H      -93.072     145.811      71.018
  H      -89.337     144.590      73.877
  H      -90.742     143.594      73.584
  H      -90.903     145.332      73.655

 6  7  8  9  10  11  12  13  14  15  16  26  30  31  32  33  35 0
 6-311+G(2d,p)
 ****
 37  38 0
 6-311+G(2d,p)
 ****
 1  2  3  4  5  17  18  19  20  21  22  23  24  25 0
 3-21G
 ****
 27  28  29  34  36  39  40  41  42  43  44  45  46 0
 3-21G
 ****


