%nproc=1
%NoSave
%Mem=1900MB
#P OB98/GEN NMR

erre ene a

0 1
  C     -553.523    -688.973     659.159
  O     -552.766    -690.123     658.847
  H     -554.269    -688.820     658.374
  H     -552.869    -688.094     659.205
  H     -554.043    -689.089     660.119
  P     -551.828    -690.758     659.981
  C     -552.792    -693.138     660.306
  O     -551.779    -692.342     659.706
  C     -552.868    -694.521     659.639
  O     -553.696    -694.423     658.448
  C     -551.476    -694.987     659.175
  O     -551.369    -696.412     659.151
  C     -551.406    -694.462     657.743
  O     -550.477    -695.183     656.931
  C     -552.858    -694.609     657.295
  N     -551.817    -692.709     652.678
  C     -551.051    -693.534     653.461
  N     -549.850    -693.916     652.956
  N     -551.416    -693.945     654.659
  C     -552.611    -693.432     655.062
  C     -553.450    -692.589     654.378
  C     -553.053    -692.169     653.045
  O     -553.685    -691.419     652.312
  N     -554.565    -692.288     655.118
  C     -554.405    -692.930     656.253
  N     -553.238    -693.666     656.255
  O     -552.723    -690.665     661.311
  O     -550.496    -690.101     660.167
  H     -550.450    -694.748     656.057
  H     -552.157    -690.697     662.092
  H     -551.508    -692.451     651.754
  H     -555.090    -692.920     657.082
  H     -553.044    -695.616     656.908
  H     -551.072    -693.425     657.788
  H     -549.455    -693.461     652.151
  H     -550.670    -694.582     659.780
  H     -549.165    -694.243     653.636
  H     -553.341    -695.235     660.307
  H     -553.735    -692.602     660.181
  H     -552.611    -693.238     661.372
  P     -550.817    -697.156     660.453
  C     -552.273    -699.361     660.106
  O     -551.006    -698.745     660.292
  O     -551.863    -696.763     661.587
  O     -549.421    -696.786     660.820
  H     -551.443    -696.222     662.271
  H     -552.146    -700.420     660.025
  H     -552.724    -698.986     659.211
  H     -552.903    -699.140     660.942

 6  7  8  9  10  11  12  13  14  15  26  29  33  34 0
 6-311+G(2d,p)
 ****
 36  38  39  40  41 0
 6-311+G(2d,p)
 ****
 1  2  3  4  5  16  17  18  19  20  21  22  23  24  25 0
 3-21G
 ****
 27  28  30  31  32  35  37  42  43  44  45  46  47 0
 3-21G
 ****
 48  49 0
 3-21G
 ****


