%nproc=1
%NoSave
%Mem=1900MB
#P OB98/GEN NMR

erre ene a

0 1
  C      -52.338    -198.141     -88.194
  O      -51.507    -198.418     -87.085
  H      -52.568    -199.082     -88.702
  H      -51.821    -197.484     -88.897
  H      -53.275    -197.678     -87.874
  P      -51.184    -197.239     -86.048
  C      -49.485    -196.001     -87.542
  O      -49.687    -196.752     -86.351
  C      -48.019    -195.593     -87.656
  O      -47.802    -194.856     -88.878
  C      -47.539    -194.681     -86.532
  O      -47.327    -195.415     -85.342
  C      -46.281    -194.097     -87.159
  O      -45.185    -195.018     -87.059
  C      -46.724    -193.923     -88.632
  N      -47.132    -192.556     -88.953
  C      -46.162    -191.740     -89.529
  O      -45.008    -192.110     -89.730
  N      -46.565    -190.471     -89.849
  C      -47.788    -189.926     -89.578
  O      -48.080    -188.763     -89.838
  C      -48.760    -190.823     -88.938
  C      -48.393    -192.076     -88.661
  O      -51.467    -197.539     -84.614
  O      -52.072    -196.017     -86.581
  H      -44.405    -194.568     -87.438
  H      -52.883    -195.940     -86.044
  H      -45.873    -189.861     -90.255
  H      -49.737    -190.424     -88.704
  H      -49.095    -192.751     -88.183
  H      -45.907    -194.203     -89.308
  H      -45.960    -193.173     -86.678
  H      -48.258    -193.870     -86.368
  H      -47.412    -196.507     -87.702
  H      -50.113    -195.104     -87.502
  H      -49.787    -196.609     -88.401
  P      -48.328    -195.272     -84.102
  C      -47.425    -193.062     -83.172
  O      -47.558    -194.460     -82.949
  O      -48.967    -196.542     -83.649
  O      -49.426    -194.224     -84.610
  H      -50.261    -194.689     -84.810
  H      -46.901    -192.618     -82.351
  H      -48.396    -192.620     -83.256
  H      -46.878    -192.896     -84.076

 6  7  8  9  10  11  12  13  14  15  16  26  31  32  33  34  35 0
 6-311+G(2d,p)
 ****
 36  37 0
 6-311+G(2d,p)
 ****
 1  2  3  4  5  17  18  19  20  21  22  23  24  25 0
 3-21G
 ****
 27  28  29  30  38  39  40  41  42  43  44  45 0
 3-21G
 ****


