%nproc=1
%NoSave
%Mem=1900MB
#P OB98/GEN NMR

erre ene a

0 1
  C      284.184     777.556     421.453
  O      283.781     778.884     421.757
  H      284.314     777.010     422.386
  H      285.142     777.567     420.918
  H      283.422     777.055     420.847
  P      283.586     779.925     420.550
  C      281.927     780.180     418.592
  O      282.202     779.551     419.835
  C      280.533     779.811     418.096
  O      280.471     778.364     417.979
  C      279.423     780.258     419.070
  O      278.398     781.024     418.440
  C      279.005     778.952     419.754
  O      277.688     778.937     420.248
  C      279.299     777.893     418.685
  N      279.538     776.550     419.220
  C      278.425     775.837     419.669
  O      277.255     776.238     419.606
  N      278.692     774.596     420.175
  C      279.918     774.023     420.311
  O      280.090     772.904     420.788
  C      281.051     774.830     419.857
  C      280.819     776.049     419.341
  O      284.755     780.069     419.622
  O      283.259     781.305     421.285
  H      277.637     779.585     420.987
  H      284.048     781.877     421.291
  H      277.890     774.065     420.487
  H      282.043     774.409     419.956
  H      281.639     776.677     418.993
  H      278.487     777.823     417.971
  H      279.670     778.791     420.608
  H      279.827     780.945     419.828
  H      280.384     780.229     417.096
  H      282.690     779.841     417.872
  H      282.008     781.275     418.703
  P      278.172     782.590     418.666
  C      278.849     784.792     417.415
  O      278.920     783.378     417.496
  O      278.405     783.077     420.055
  O      276.609     782.797     418.332
  H      276.291     783.526     418.910
  H      279.411     785.129     416.569
  H      279.255     785.221     418.307
  H      277.828     785.092     417.308

 6  7  8  9  10  11  12  13  14  15  16  26  31  32  33  34  35 0
 6-311+G(2d,p)
 ****
 36  37 0
 6-311+G(2d,p)
 ****
 1  2  3  4  5  17  18  19  20  21  22  23  24  25 0
 3-21G
 ****
 27  28  29  30  38  39  40  41  42  43  44  45 0
 3-21G
 ****


