%nproc=1
%NoSave
%Mem=1900MB
#P OB98/GEN NMR

erre ene a

0 1
  C      426.043     883.428     413.741
  O      426.600     884.708     413.970
  P      427.291     884.981     415.390
  C      425.348     886.499     416.267
  O      426.114     885.299     416.432
  C      424.382     886.649     417.427
  O      423.567     885.471     417.581
  C      425.071     886.849     418.776
  O      425.515     888.193     418.948
  C      423.963     886.461     419.743
  O      423.061     887.558     419.982
  C      423.259     885.327     418.975
  N      423.581     884.001     419.491
  C      422.972     883.627     420.681
  O      422.189     884.372     421.298
  N      423.295     882.387     421.162
  C      424.189     881.526     420.620
  O      424.481     880.440     421.129
  C      424.837     881.983     419.373
  C      424.512     883.178     418.890
  O      428.022     886.378     415.197
  O      428.235     883.917     415.826
  H      423.555     888.211     420.518
  H      428.867     886.396     415.695
  H      422.828     882.098     422.005
  H      425.557     881.315     418.914
  H      424.987     883.537     417.972
  H      422.152     885.452     419.046
  H      424.357     886.160     420.720
  H      425.904     886.143     418.880
  H      423.697     887.496     417.206
  H      424.797     886.453     415.325
  H      426.031     887.346     416.216
  P      426.744     888.430     419.940
  C      425.619     890.107     421.612
  O      426.078     888.775     421.353
  O      427.313     889.820     419.392
  O      427.724     887.304     419.932
  H      426.610     890.376     419.027
  H      425.209     890.570     420.709
  H      426.456     890.708     421.977
  H      424.832     890.063     422.375
  H      425.621     883.393     412.759
  H      425.279     883.237     414.465
  H      426.809     882.685     413.826

 3  4  5  6  7  8  9  10  11  12  13  23  28  29  30  31  32 0
 6-311+G(2d,p)
 ****
 33  34 0
 6-311+G(2d,p)
 ****
 1  2  14  15  16  17  18  19  20  21  22  24  25  26 0
 3-21G
 ****
 27  35  36  37  38  39  40  41  42  43  44  45 0
 3-21G
 ****


