%nproc=1
%NoSave
%Mem=1900MB
#P OB98/GEN NMR

erre ene a

0 1
  C     -208.615    -355.604    -259.740
  O     -207.966    -356.858    -259.830
  H     -208.006    -354.905    -259.164
  H     -208.752    -355.208    -260.750
  H     -209.597    -355.724    -259.274
  P     -207.580    -357.560    -258.438
  C     -205.224    -356.466    -258.440
  O     -206.461    -356.630    -257.757
  C     -204.291    -355.573    -257.632
  O     -204.824    -354.235    -257.551
  C     -204.079    -356.015    -256.192
  O     -203.153    -357.089    -256.087
  C     -203.520    -354.735    -255.581
  O     -202.117    -354.623    -255.890
  C     -204.307    -353.642    -256.326
  N     -205.741    -351.399    -251.935
  C     -204.528    -351.809    -252.384
  N     -204.230    -352.407    -253.556
  C     -205.330    -352.560    -254.313
  C     -206.626    -352.189    -253.988
  C     -206.816    -351.591    -252.728
  N     -208.056    -351.189    -252.275
  N     -207.492    -352.493    -255.016
  C     -206.734    -353.033    -255.951
  N     -205.421    -353.104    -255.566
  O     -206.754    -358.858    -258.891
  O     -208.734    -357.926    -257.562
  H     -202.042    -354.664    -256.862
  H     -206.950    -359.589    -258.277
  H     -203.695    -351.635    -251.711
  H     -207.092    -353.386    -256.909
  H     -203.661    -352.812    -256.623
  H     -203.619    -354.695    -254.496
  H     -205.029    -356.261    -255.705
  H     -203.329    -355.522    -258.164
  H     -205.413    -355.999    -259.417
  H     -208.098    -350.592    -251.466
  H     -208.856    -351.329    -252.884
  H     -204.775    -357.450    -258.594
  P     -203.324    -358.101    -254.850
  C     -201.519    -356.766    -253.539
  O     -202.847    -357.276    -253.554
  O     -202.136    -359.150    -255.078
  O     -204.651    -358.777    -254.764
  H     -202.357    -360.000    -254.654
  H     -201.348    -356.244    -252.621
  H     -201.386    -356.094    -254.361
  H     -200.825    -357.576    -253.624

 6  7  8  9  10  11  12  13  14  15  25  28  32  33  34  35 0
 6-311+G(2d,p)
 ****
 36  39  40 0
 6-311+G(2d,p)
 ****
 1  2  3  4  5  16  17  18  19  20  21  22  23  24 0
 3-21G
 ****
 26  27  29  30  31  37  38  41  42  43  44  45  46  47  48 0
 3-21G
 ****


