%nproc=1
%NoSave
%Mem=1900MB
#P OB98/GEN NMR

erre ene a

0 1
  C     -184.927    -925.074    -478.163
  O     -184.981    -926.503    -478.099
  P     -186.405    -927.222    -478.325
  C     -185.675    -928.918    -480.130
  O     -186.472    -927.776    -479.825
  C     -186.508    -929.976    -480.889
  O     -187.721    -930.277    -480.148
  C     -186.909    -929.531    -482.289
  O     -186.600    -930.487    -483.310
  C     -188.397    -929.186    -482.149
  O     -189.120    -929.260    -483.381
  C     -188.857    -930.140    -481.027
  N     -190.047    -929.629    -480.344
  C     -191.222    -929.599    -481.096
  O     -191.275    -929.880    -482.292
  N     -192.330    -929.122    -480.445
  C     -192.370    -928.664    -479.164
  O     -193.404    -928.237    -478.648
  C     -191.097    -928.669    -478.430
  C     -190.011    -929.149    -479.056
  O     -187.596    -926.468    -477.875
  O     -186.231    -928.592    -477.476
  H     -190.038    -928.985    -483.219
  H     -187.090    -928.769    -477.031
  H     -193.196    -929.116    -480.969
  H     -191.078    -928.277    -477.424
  H     -189.048    -929.160    -478.555
  H     -189.101    -931.124    -481.430
  H     -188.460    -928.154    -481.783
  H     -186.376    -928.627    -482.606
  H     -185.904    -930.898    -480.943
  H     -185.292    -929.352    -479.218
  H     -184.807    -928.616    -480.722
  P     -185.226    -930.546    -484.123
  C     -185.149    -933.112    -483.834
  O     -184.467    -931.888    -483.693
  O     -184.386    -929.296    -484.058
  O     -185.684    -930.809    -485.631
  H     -185.144    -930.301    -486.239
  H     -184.673    -933.862    -483.170
  H     -185.114    -933.494    -484.849
  H     -186.206    -933.027    -483.499
  H     -183.922    -924.747    -477.994
  H     -185.568    -924.659    -477.413
  H     -185.251    -924.748    -479.129

 3  4  5  6  7  8  9  10  11  12  13  23  28  29  30  31  32 0
 6-311+G(2d,p)
 ****
 33  34 0
 6-311+G(2d,p)
 ****
 1  2  14  15  16  17  18  19  20  21  22  24  25  26  27 0
 3-21G
 ****
 35  36  37  38  39  40  41  42  43  44  45 0
 3-21G
 ****


