%nproc=1
%NoSave
%Mem=1900MB
#P OB98/GEN NMR

erre ene a

0 1
  C     -239.816    -595.312     374.643
  O     -239.961    -594.101     373.930
  P     -240.077    -592.705     374.712
  C     -237.536    -592.317     374.850
  O     -238.736    -592.561     375.581
  C     -236.755    -591.177     375.494
  O     -237.518    -589.939     375.467
  C     -236.441    -591.388     376.969
  O     -235.561    -592.439     377.302
  C     -236.046    -589.989     377.395
  O     -234.693    -589.699     377.044
  C     -237.016    -589.119     376.552
  N     -238.100    -588.569     377.363
  C     -238.187    -587.182     377.395
  O     -237.421    -586.433     376.796
  N     -239.186    -586.665     378.177
  C     -240.055    -587.387     378.950
  O     -240.895    -586.856     379.664
  C     -239.900    -588.849     378.886
  C     -238.943    -589.372     378.109
  O     -241.341    -592.514     375.484
  O     -239.852    -591.619     373.558
  H     -234.123    -590.335     377.520
  H     -238.992    -591.682     373.103
  H     -239.261    -585.662     378.231
  H     -240.583    -589.446     379.476
  H     -238.812    -590.440     378.046
  H     -236.474    -588.281     376.087
  H     -236.132    -589.848     378.477
  H     -237.384    -591.625     377.489
  H     -235.847    -591.008     374.911
  H     -237.798    -592.039     373.822
  H     -236.945    -593.234     374.811
  P     -235.602    -593.217     378.701
  C     -237.484    -594.711     377.724
  O     -237.019    -593.960     378.821
  O     -235.108    -592.474     379.901
  O     -234.609    -594.449     378.414
  H     -234.169    -594.699     379.241
  H     -238.474    -595.106     377.962
  H     -236.812    -595.554     377.526
  H     -237.563    -594.078     376.834
  H     -239.756    -596.127     373.953
  H     -240.660    -595.451     375.286
  H     -238.922    -595.275     375.230

 3  4  5  6  7  8  9  10  11  12  13  23  28  29  30  31  32 0
 6-311+G(2d,p)
 ****
 33  34 0
 6-311+G(2d,p)
 ****
 1  2  14  15  16  17  18  19  20  21  22  24  25  26  27 0
 3-21G
 ****
 35  36  37  38  39  40  41  42  43  44  45 0
 3-21G
 ****


