%nproc=1
%NoSave
%Mem=1900MB
#P OB98/GEN NMR

erre ene a

0 1
  C     -354.755     171.452    -256.568
  O     -353.581     171.393    -257.353
  H     -355.003     170.442    -256.227
  H     -355.593     171.837    -257.153
  H     -354.591     172.084    -255.690
  P     -353.051     172.738    -258.038
  C     -352.660     171.547    -260.305
  O     -352.079     172.278    -259.233
  C     -351.650     170.565    -260.898
  O     -350.511     171.282    -261.419
  C     -351.088     169.565    -259.892
  O     -352.040     168.565    -259.602
  C     -349.849     169.098    -260.627
  O     -350.183     168.141    -261.646
  C     -349.355     170.422    -261.264
  N     -348.312     171.088    -260.489
  C     -347.017     171.033    -261.009
  O     -346.799     170.433    -262.065
  N     -346.001     171.641    -260.314
  C     -346.258     172.288    -259.214
  N     -345.210     172.874    -258.580
  C     -347.615     172.403    -258.649
  C     -348.580     171.774    -259.318
  O     -352.461     173.762    -257.118
  O     -354.333     173.306    -258.811
  H     -350.876     168.561    -262.193
  H     -354.807     173.952    -258.256
  H     -347.787     172.954    -257.737
  H     -349.611     171.807    -258.969
  H     -348.957     170.236    -262.272
  H     -349.124     168.617    -259.965
  H     -350.776     170.083    -258.976
  H     -352.132     170.050    -261.739
  H     -344.301     172.783    -259.014
  H     -352.969     172.271    -261.065
  H     -345.314     173.527    -257.818
  H     -353.552     171.008    -259.965
  P     -352.093     167.833    -258.173
  C     -351.135     165.764    -259.362
  O     -352.144     166.261    -258.489
  O     -353.156     168.325    -257.253
  O     -350.616     168.026    -257.597
  H     -350.497     168.950    -257.256
  H     -351.269     164.711    -259.499
  H     -350.171     165.949    -258.935
  H     -351.207     166.258    -260.308

 6  7  8  9  10  11  12  13  14  15  16  26  30  31  32  33  35 0
 6-311+G(2d,p)
 ****
 37  38 0
 6-311+G(2d,p)
 ****
 1  2  3  4  5  17  18  19  20  21  22  23  24  25 0
 3-21G
 ****
 27  28  29  34  36  39  40  41  42  43  44  45  46 0
 3-21G
 ****


