%nproc=1
%NoSave
%Mem=1900MB
#P OB98/GEN NMR

erre ene a

0 1
  C       31.052      99.772      47.339
  O       30.864     100.719      48.370
  H       30.074      99.434      46.988
  H       31.610      98.908      47.713
  H       31.591     100.225      46.503
  P       32.195     101.260      49.091
  C       31.578      99.786      51.154
  O       32.536     100.108      50.158
  C       32.202      99.937      52.537
  O       33.118      98.854      52.804
  C       33.017     101.212      52.716
  O       32.212     102.357      52.946
  C       33.837     100.843      53.938
  O       33.014     100.929      55.116
  C       34.201      99.375      53.621
  N       35.481      99.236      52.926
  C       36.543      98.702      53.666
  O       36.387      98.381      54.842
  N       37.771      98.574      53.062
  C       37.926      98.936      51.827
  N       39.166      98.800      51.284
  C       36.831      99.487      51.007
  C       35.653      99.610      51.611
  O       31.662     102.449      50.021
  O       33.320     101.640      48.190
  H       32.706     101.851      55.179
  H       32.392     102.769      50.605
  H       37.011      99.786      49.984
  H       34.802     100.010      51.071
  H       34.235      98.773      54.538
  H       34.694     101.501      54.095
  H       33.699     101.377      51.874
  H       31.395      99.873      53.280
  H       39.910      98.478      51.889
  H       31.251      98.753      50.997
  H       39.422      99.219      50.399
  H       30.712     100.451      51.072
  P       32.913     103.797      52.833
  C       33.658     103.837      55.320
  O       34.056     103.851      53.957
  O       31.795     104.788      53.400
  O       33.354     104.177      51.454
  H       31.773     105.622      52.894
  H       34.525     103.877      55.945
  H       33.113     102.939      55.523
  H       33.035     104.684      55.519

 6  7  8  9  10  11  12  13  14  15  16  26  30  31  32  33  35 0
 6-311+G(2d,p)
 ****
 37  38 0
 6-311+G(2d,p)
 ****
 1  2  3  4  5  17  18  19  20  21  22  23  24  25 0
 3-21G
 ****
 27  28  29  34  36  39  40  41  42  43  44  45  46 0
 3-21G
 ****


