%nproc=1
%NoSave
%Mem=1900MB
#P OB98/GEN NMR

erre ene a

0 1
  C     -180.293      32.176     -96.289
  O     -180.306      33.114     -97.343
  P     -178.990      33.815     -97.912
  C     -179.939      36.118     -97.154
  O     -179.334      35.364     -98.198
  C     -179.903      37.635     -97.405
  O     -178.535      38.089     -97.430
  C     -180.482      37.946     -98.797
  O     -181.880      38.059     -98.976
  C     -179.667      39.134     -99.309
  O     -180.339      40.380     -99.111
  C     -178.390      39.070     -98.467
  N     -174.391      40.951    -100.958
  C     -175.232      41.584    -100.056
  N     -175.094      42.922     -99.959
  N     -176.128      40.950     -99.341
  C     -176.208      39.627     -99.619
  C     -175.422      38.893    -100.477
  C     -174.403      39.593    -101.229
  O     -173.698      39.084    -102.098
  N     -175.839      37.588    -100.561
  C     -176.900      37.541     -99.784
  N     -177.192      38.764     -99.225
  O     -178.203      33.053     -98.931
  O     -178.086      33.915     -96.580
  H     -180.573      40.447     -98.174
  H     -177.152      33.801     -96.850
  H     -173.765      41.503    -101.537
  H     -177.516      36.664     -99.623
  H     -178.213      40.030     -97.965
  H     -179.486      39.044    -100.388
  H     -174.519      43.457    -100.596
  H     -180.198      37.111     -99.452
  H     -175.803      43.435     -99.443
  H     -180.390      38.181     -96.599
  H     -179.416      35.873     -96.221
  H     -180.982      35.801     -97.032
  P     -182.856      36.934     -99.561
  C     -184.081      38.727    -100.917
  O     -184.218      37.634    -100.026
  O     -183.308      36.099     -98.267
  O     -182.236      36.024    -100.574
  H     -183.607      35.208     -98.538
  H     -185.007      39.304    -100.927
  H     -183.891      38.345    -101.929
  H     -183.249      39.379    -100.617
  H     -181.292      31.851     -96.089
  H     -179.884      32.631     -95.411
  H     -179.693      31.335     -96.567

 3  4  5  6  7  8  9  10  11  12  23  26  30  31 0
 6-311+G(2d,p)
 ****
 33  35  36  37  38 0
 6-311+G(2d,p)
 ****
 1  2  13  14  15  16  17  18  19  20  21  22  24  25 0
 3-21G
 ****
 27  28  29  32  34  39  40  41  42  43  44  45  46  47  48  49 0
 3-21G
 ****


