%nproc=1
%NoSave
%Mem=1900MB
#P OB98/GEN NMR

erre ene a

0 1
  C       68.742      54.473     145.699
  O       68.830      53.061     145.721
  H       69.731      54.915     145.853
  H       68.365      54.785     144.722
  H       68.050      54.821     146.474
  P       69.340      52.395     147.091
  C       71.535      51.590     145.961
  O       70.942      52.357     146.998
  C       72.782      50.877     146.479
  O       73.833      51.838     146.732
  C       72.588      50.125     147.790
  O       71.971      48.863     147.591
  C       74.034      49.972     148.245
  O       74.657      48.890     147.531
  C       74.648      51.313     147.812
  N       76.836      52.536     152.276
  C       77.056      51.519     151.411
  N       76.446      51.273     150.234
  C       75.533      52.221     149.964
  C       75.215      53.330     150.734
  C       75.907      53.470     151.949
  N       75.625      54.482     152.859
  N       74.213      54.069     150.136
  C       73.923      53.410     149.034
  N       74.699      52.292     148.882
  O       68.910      50.859     146.921
  O       68.775      52.993     148.338
  H       74.294      48.064     147.900
  H       68.062      50.711     147.381
  H       77.822      50.807     151.709
  H       73.161      53.700     148.323
  H       75.667      51.194     147.418
  H       74.126      49.750     149.314
  H       72.043      50.728     148.526
  H       73.136      50.202     145.690
  H       71.814      52.251     145.133
  H       75.817      54.220     153.823
  H       74.757      54.974     152.682
  H       70.802      50.857     145.605
  P       70.764      48.454     148.568
  C       72.175      46.595     149.687
  O       71.436      47.798     149.870
  O       70.101      47.210     147.812
  O       69.761      49.528     148.828
  H       69.151      47.386     147.660
  H       72.565      46.269     150.629
  H       72.983      46.772     149.008
  H       71.532      45.839     149.287

 6  7  8  9  10  11  12  13  14  15  25  28  32  33  34  35 0
 6-311+G(2d,p)
 ****
 36  39  40 0
 6-311+G(2d,p)
 ****
 1  2  3  4  5  16  17  18  19  20  21  22  23  24 0
 3-21G
 ****
 26  27  29  30  31  37  38  41  42  43  44  45  46  47  48 0
 3-21G
 ****


