%nproc=1
%NoSave
%Mem=1900MB
#P OB98/GEN NMR

erre ene a

0 1
  C     -354.151    -195.144    -647.536
  O     -353.372    -194.489    -648.537
  P     -351.892    -195.034    -648.828
  C     -350.835    -192.713    -649.240
  O     -351.141    -193.984    -649.795
  C     -350.652    -191.668    -650.358
  O     -351.970    -191.226    -650.797
  C     -349.913    -190.391    -649.934
  O     -348.487    -190.366    -650.058
  C     -350.448    -189.386    -650.943
  O     -349.718    -189.486    -652.179
  C     -351.890    -189.837    -651.168
  N     -356.203    -187.073    -651.447
  C     -355.484    -187.735    -652.385
  N     -354.346    -188.444    -652.232
  C     -353.964    -188.453    -650.943
  C     -354.597    -187.834    -649.875
  C     -355.761    -187.112    -650.164
  N     -356.490    -186.435    -649.206
  N     -353.898    -188.060    -648.700
  C     -352.856    -188.785    -649.064
  N     -352.863    -189.063    -650.402
  O     -351.790    -196.464    -649.234
  O     -351.150    -194.783    -647.425
  H     -350.214    -188.954    -652.834
  H     -350.535    -195.525    -647.259
  H     -355.875    -187.676    -653.401
  H     -352.085    -189.127    -648.395
  H     -352.199    -189.766    -652.221
  H     -350.343    -188.347    -650.602
  H     -350.195    -190.092    -648.919
  H     -350.150    -192.130    -651.210
  H     -349.912    -192.784    -648.656
  H     -357.293    -185.908    -649.506
  H     -356.148    -186.405    -648.258
  H     -351.631    -192.452    -648.544
  P     -347.567    -189.691    -648.935
  C     -345.900    -188.568    -650.606
  O     -346.113    -189.528    -649.610
  O     -347.566    -190.379    -647.619
  O     -348.107    -188.181    -648.902
  H     -347.920    -187.674    -649.704
  H     -344.822    -188.471    -650.775
  H     -346.291    -187.586    -650.303
  H     -346.373    -188.886    -651.540
  H     -355.106    -194.668    -647.460
  H     -353.646    -195.083    -646.595
  H     -354.284    -196.171    -647.803

 3  4  5  6  7  8  9  10  11  12  22  25  29  30  31  32 0
 6-311+G(2d,p)
 ****
 33  36  37 0
 6-311+G(2d,p)
 ****
 1  2  13  14  15  16  17  18  19  20  21  23  24  26 0
 3-21G
 ****
 27  28  34  35  38  39  40  41  42  43  44  45  46  47  48 0
 3-21G
 ****


