%nproc=1
%NoSave
%Mem=1900MB
#P OB98/GEN NMR

erre ene a

0 1
  C       84.965    -256.374     177.522
  O       85.208    -257.286     178.593
  P       86.667    -257.938     178.724
  C       87.319    -256.583     180.823
  O       87.631    -256.892     179.467
  C       88.591    -256.595     181.688
  O       88.980    -257.971     181.927
  C       89.814    -255.921     181.048
  O       90.003    -254.525     181.259
  C       90.954    -256.635     181.776
  O       91.190    -256.005     183.051
  C       90.423    -258.048     181.991
  N       93.383    -262.158     181.283
  C       93.089    -261.440     182.393
  N       92.290    -260.356     182.492
  C       91.758    -260.040     181.299
  C       91.969    -260.684     180.090
  C       92.827    -261.795     180.108
  N       93.140    -262.522     178.983
  N       91.263    -260.067     179.078
  C       90.654    -259.053     179.669
  N       90.909    -259.002     181.008
  O       87.222    -258.550     177.481
  O       86.443    -259.053     179.855
  H       91.367    -255.065     182.865
  H       86.974    -259.843     179.634
  H       93.554    -261.773     183.316
  H       90.019    -258.335     179.161
  H       90.683    -258.448     182.980
  H       91.898    -256.579     181.222
  H       89.862    -256.139     179.977
  H       88.373    -256.129     182.657
  H       86.604    -257.311     181.211
  H       93.804    -263.276     179.072
  H       92.783    -262.227     178.083
  H       86.818    -255.613     180.827
  P       90.840    -253.631     180.236
  C       89.128    -251.652     180.173
  O       89.761    -252.711     179.488
  O       91.744    -254.388     179.327
  O       91.586    -252.597     181.203
  H       90.999    -251.960     181.641
  H       88.606    -251.024     179.446
  H       89.856    -251.040     180.713
  H       88.396    -252.059     180.879
  H       83.953    -256.029     177.570
  H       85.128    -256.869     176.588
  H       85.631    -255.541     177.605

 3  4  5  6  7  8  9  10  11  12  22  25  29  30  31  32 0
 6-311+G(2d,p)
 ****
 33  36  37 0
 6-311+G(2d,p)
 ****
 1  2  13  14  15  16  17  18  19  20  21  23  24  26 0
 3-21G
 ****
 27  28  34  35  38  39  40  41  42  43  44  45  46  47  48 0
 3-21G
 ****


