%nproc=1
%NoSave
%Mem=1900MB
#P OB98/GEN NMR

erre ene a

0 1
  C     -174.936     -54.067     124.304
  O     -173.919     -53.213     123.825
  H     -175.812     -53.463     124.550
  H     -174.606     -54.587     125.207
  H     -175.217     -54.794     123.536
  P     -172.494     -53.845     123.450
  C     -170.976     -53.077     125.391
  O     -171.739     -54.142     124.835
  C     -170.143     -53.587     126.575
  O     -171.043     -54.262     127.488
  C     -169.054     -54.581     126.144
  O     -167.757     -54.225     126.617
  C     -169.628     -55.928     126.568
  O     -168.656     -56.921     126.824
  C     -170.510     -55.570     127.769
  N     -171.591     -56.525     128.014
  C     -171.230     -57.806     128.423
  O     -170.078     -58.192     128.606
  N     -172.272     -58.675     128.634
  C     -173.595     -58.398     128.465
  O     -174.484     -59.218     128.673
  C     -173.911     -57.037     128.005
  C     -172.911     -56.177     127.802
  O     -171.691     -53.077     122.455
  O     -172.849     -55.311     122.912
  H     -169.137     -57.762     126.982
  H     -172.761     -55.331     121.941
  H     -172.025     -59.601     128.946
  H     -174.952     -56.788     127.848
  H     -173.106     -55.164     127.462
  H     -169.913     -55.507     128.680
  H     -170.265     -56.303     125.758
  H     -168.933     -54.575     125.054
  H     -169.719     -52.725     127.103
  H     -171.672     -52.302     125.723
  H     -170.314     -52.660     124.625
  P     -166.578     -53.644     125.715
  C     -165.606     -56.022     125.148
  O     -166.115     -54.777     124.687
  O     -165.498     -52.914     126.443
  O     -167.321     -52.575     124.759
  H     -166.671     -51.867     124.581
  H     -165.355     -56.637     124.309
  H     -166.349     -56.513     125.741
  H     -164.731     -55.852     125.741

 6  7  8  9  10  11  12  13  14  15  16  26  31  32  33  34  35 0
 6-311+G(2d,p)
 ****
 36  37 0
 6-311+G(2d,p)
 ****
 1  2  3  4  5  17  18  19  20  21  22  23  24  25 0
 3-21G
 ****
 27  28  29  30  38  39  40  41  42  43  44  45 0
 3-21G
 ****


