%nproc=1
%NoSave
%Mem=1900MB
#P OB98/GEN NMR

erre ene a

0 1
  C     -176.495    -136.412    -149.252
  O     -177.132    -135.232    -148.813
  P     -177.949    -134.310    -149.849
  C     -176.114    -132.548    -149.409
  O     -176.887    -133.235    -150.395
  C     -174.663    -132.405    -149.867
  O     -174.080    -133.698    -150.132
  C     -174.484    -131.599    -151.148
  O     -174.620    -130.209    -150.892
  C     -173.104    -132.037    -151.585
  O     -172.082    -131.299    -150.903
  C     -173.082    -133.527    -151.160
  N     -173.298    -134.433    -152.285
  C     -172.209    -135.235    -152.640
  O     -171.130    -135.133    -152.047
  N     -172.351    -136.103    -153.703
  C     -173.464    -136.144    -154.357
  N     -173.543    -137.007    -155.404
  C     -174.629    -135.294    -154.029
  C     -174.478    -134.465    -152.997
  O     -179.225    -133.742    -149.317
  O     -178.164    -135.279    -151.107
  H     -172.251    -131.420    -149.941
  H     -178.849    -135.963    -150.929
  H     -175.539    -135.350    -154.613
  H     -175.277    -133.801    -152.688
  H     -172.117    -133.776    -150.697
  H     -172.934    -131.889    -152.664
  H     -175.226    -131.923    -151.894
  H     -174.094    -131.937    -149.047
  H     -172.707    -137.552    -155.610
  H     -176.146    -133.124    -148.478
  H     -174.352    -137.094    -156.003
  H     -176.559    -131.564    -149.218
  P     -175.849    -129.398    -151.509
  C     -174.351    -127.907    -152.962
  O     -175.411    -128.853    -152.948
  O     -176.464    -128.376    -150.600
  O     -176.918    -130.546    -151.866
  H     -177.801    -130.249    -151.578
  H     -173.928    -127.874    -153.968
  H     -173.560    -128.182    -152.261
  H     -174.737    -126.924    -152.711
  H     -176.008    -136.884    -148.424
  H     -175.770    -136.169    -150.001
  H     -177.224    -137.078    -149.664

 3  4  5  6  7  8  9  10  11  12  13  23  27  28  29  30  32 0
 6-311+G(2d,p)
 ****
 34  35 0
 6-311+G(2d,p)
 ****
 1  2  14  15  16  17  18  19  20  21  22  24  25  26 0
 3-21G
 ****
 31  33  36  37  38  39  40  41  42  43  44  45  46 0
 3-21G
 ****


