%nproc=1
%NoSave
%Mem=1900MB
#P OB98/GEN NMR

erre ene a

0 1
  C      -29.366    -125.210      76.068
  O      -29.804    -126.551      76.076
  H      -28.926    -124.983      77.046
  H      -30.202    -124.527      75.900
  H      -28.601    -125.061      75.301
  P      -30.661    -127.097      74.830
  C      -28.603    -127.642      73.393
  O      -29.704    -128.183      74.115
  C      -27.643    -128.737      72.927
  O      -27.013    -129.355      74.080
  C      -28.320    -129.853      72.117
  O      -27.541    -130.131      70.950
  C      -28.303    -131.046      73.064
  O      -28.364    -132.289      72.367
  C      -27.015    -130.779      73.851
  N      -26.944    -131.526      75.104
  C      -25.666    -131.924      75.523
  O      -24.680    -131.666      74.828
  N      -25.543    -132.626      76.692
  C      -26.604    -132.961      77.359
  N      -26.412    -133.667      78.507
  C      -27.974    -132.606      76.932
  C      -28.067    -131.891      75.810
  O      -31.190    -126.036      73.924
  O      -31.800    -128.003      75.492
  H      -27.612    -132.327      71.734
  H      -32.544    -128.116      74.851
  H      -28.827    -132.914      77.516
  H      -29.034    -131.577      75.422
  H      -26.130    -131.028      73.248
  H      -29.168    -130.992      73.737
  H      -29.334    -129.607      71.806
  H      -26.833    -128.266      72.355
  H      -25.459    -133.889      78.767
  H      -28.081    -126.923      74.035
  H      -27.165    -133.986      79.101
  H      -28.997    -127.116      72.513
  P      -28.177    -131.176      69.905
  C      -29.602    -129.407      68.654
  O      -28.559    -130.365      68.570
  O      -29.596    -131.521      70.561
  O      -27.347    -132.400      69.697
  H      -29.555    -132.381      71.020
  H      -29.744    -128.950      67.697
  H      -29.341    -128.658      69.372
  H      -30.507    -129.891      68.956

 6  7  8  9  10  11  12  13  14  15  16  26  30  31  32  33  35 0
 6-311+G(2d,p)
 ****
 37  38 0
 6-311+G(2d,p)
 ****
 1  2  3  4  5  17  18  19  20  21  22  23  24  25 0
 3-21G
 ****
 27  28  29  34  36  39  40  41  42  43  44  45  46 0
 3-21G
 ****


