%nproc=1
%NoSave
%Mem=1900MB
#P OB98/GEN NMR

erre ene a

0 1
  C      -48.577     270.786    -322.961
  O      -49.133     270.632    -321.669
  H      -48.405     271.851    -323.176
  H      -47.618     270.261    -323.006
  H      -49.259     270.363    -323.716
  P      -50.493     271.430    -321.377
  C      -51.216     273.914    -321.576
  O      -50.135     272.996    -321.515
  C      -50.750     275.311    -321.219
  O      -49.704     275.749    -322.129
  C      -51.813     276.395    -321.295
  O      -52.660     276.384    -320.156
  C      -50.956     277.641    -321.340
  O      -50.524     277.987    -320.013
  C      -49.747     277.195    -322.178
  N      -47.116     279.148    -326.144
  C      -46.758     278.856    -324.865
  N      -47.514     278.355    -323.866
  C      -48.762     278.125    -324.286
  C      -49.297     278.385    -325.544
  C      -48.406     278.924    -326.503
  N      -48.803     279.237    -327.790
  N      -50.619     278.020    -325.607
  C      -50.896     277.550    -324.411
  N      -49.811     277.611    -323.564
  O      -50.705     271.230    -319.798
  O      -51.681     270.972    -322.154
  H      -51.333     278.146    -319.478
  H      -51.659     271.166    -319.616
  H      -45.722     279.056    -324.627
  H      -51.866     277.164    -324.108
  H      -48.804     277.548    -321.750
  H      -51.468     278.512    -321.749
  H      -52.385     276.312    -322.232
  H      -50.304     275.281    -320.203
  H      -52.001     273.614    -320.868
  H      -48.083     279.430    -328.473
  H      -49.763     279.054    -328.060
  H      -51.634     273.900    -322.598
  P      -54.242     276.166    -320.405
  C      -56.129     277.668    -321.366
  O      -54.724     277.476    -321.210
  O      -54.869     276.371    -318.954
  O      -54.616     274.841    -321.008
  H      -55.718     275.896    -318.890
  H      -56.307     278.569    -321.915
  H      -56.588     277.741    -320.402
  H      -56.546     276.838    -321.897

 6  7  8  9  10  11  12  13  14  15  25  28  32  33  34  35 0
 6-311+G(2d,p)
 ****
 36  39  40 0
 6-311+G(2d,p)
 ****
 1  2  3  4  5  16  17  18  19  20  21  22  23  24 0
 3-21G
 ****
 26  27  29  30  31  37  38  41  42  43  44  45  46  47  48 0
 3-21G
 ****


