%nproc=1
%NoSave
%Mem=1900MB
#P OB98/GEN NMR

erre ene a

0 1
  C       39.945     200.401    -208.807
  O       39.239     199.182    -208.802
  H       39.309     201.175    -209.251
  H       40.852     200.308    -209.415
  H       40.208     200.704    -207.787
  P       39.919     197.956    -208.008
  C       37.717     196.876    -207.157
  O       38.905     197.571    -206.816
  C       36.489     197.737    -206.825
  O       36.483     198.925    -207.664
  C       35.161     197.043    -207.062
  O       34.789     196.215    -205.965
  C       34.231     198.242    -207.182
  O       33.954     198.780    -205.870
  C       35.092     199.228    -207.988
  N       36.722     200.861    -212.509
  C       37.147     201.185    -211.235
  N       38.151     202.098    -211.155
  N       36.642     200.689    -210.138
  C       35.641     199.798    -210.369
  C       35.131     199.388    -211.587
  C       35.711     199.941    -212.785
  O       35.382     199.670    -213.936
  N       34.122     198.474    -211.421
  C       34.016     198.338    -210.107
  N       34.908     199.134    -209.426
  O       41.141     198.651    -207.236
  O       40.389     196.820    -208.853
  H       33.254     199.445    -205.979
  H       41.893     198.029    -207.209
  H       37.137     201.284    -213.317
  H       33.304     197.690    -209.612
  H       34.909     200.272    -207.706
  H       33.265     197.997    -207.628
  H       38.551     202.562    -211.955
  H       35.144     196.479    -208.016
  H       38.504     202.333    -210.236
  H       36.578     198.067    -205.791
  H       37.665     195.948    -206.574
  H       37.734     196.631    -208.222
  P       34.224     194.750    -206.288
  C       35.591     193.394    -204.546
  O       35.400     193.728    -205.920
  O       34.200     194.711    -207.899
  O       32.883     194.443    -205.702
  H       33.550     194.057    -208.207
  H       36.406     192.707    -204.456
  H       34.700     192.943    -204.161
  H       35.810     194.282    -203.990

 6  7  8  9  10  11  12  13  14  15  26  29  33  34 0
 6-311+G(2d,p)
 ****
 36  38  39  40  41 0
 6-311+G(2d,p)
 ****
 1  2  3  4  5  16  17  18  19  20  21  22  23  24  25 0
 3-21G
 ****
 27  28  30  31  32  35  37  42  43  44  45  46  47 0
 3-21G
 ****
 48  49 0
 3-21G
 ****


