%nproc=1
%NoSave
%Mem=1900MB
#P OB98/GEN NMR

erre ene a

0 1
  C      608.727    -625.211     355.574
  O      609.156    -625.435     356.905
  H      607.679    -625.496     355.494
  H      609.311    -625.815     354.870
  H      608.824    -624.148     355.320
  P      610.697    -625.167     357.268
  C      610.565    -625.587     359.826
  O      611.010    -626.066     358.557
  C      611.418    -626.163     360.952
  O      611.225    -627.597     361.039
  C      612.918    -625.966     360.768
  O      613.281    -624.626     361.054
  C      613.465    -627.008     361.736
  O      613.395    -626.544     363.089
  C      612.471    -628.181     361.502
  N      612.962    -629.173     360.558
  C      614.080    -629.922     360.969
  O      614.601    -629.691     362.064
  N      614.582    -630.878     360.117
  C      614.003    -631.104     358.976
  N      614.542    -632.066     358.186
  C      612.797    -630.371     358.525
  C      612.340    -629.427     359.343
  O      611.104    -623.733     357.398
  O      611.502    -625.906     356.101
  H      613.599    -627.321     363.657
  H      611.717    -625.283     355.383
  H      612.335    -630.609     357.567
  H      611.463    -628.846     359.088
  H      612.255    -628.684     362.447
  H      614.513    -627.253     361.531
  H      613.222    -626.237     359.752
  H      611.068    -625.730     361.895
  H      615.350    -632.555     358.550
  H      609.524    -625.902     359.941
  H      614.094    -632.444     357.364
  H      610.600    -624.489     359.853
  P      614.604    -623.960     360.443
  C      613.570    -621.628     360.102
  O      614.517    -622.401     360.827
  O      614.851    -624.244     358.999
  O      615.773    -624.482     361.412
  H      616.004    -625.430     361.188
  H      613.602    -620.614     360.442
  H      612.589    -622.026     360.260
  H      613.805    -621.662     359.059

 6  7  8  9  10  11  12  13  14  15  16  26  30  31  32  33  35 0
 6-311+G(2d,p)
 ****
 37  38 0
 6-311+G(2d,p)
 ****
 1  2  3  4  5  17  18  19  20  21  22  23  24  25 0
 3-21G
 ****
 27  28  29  34  36  39  40  41  42  43  44  45  46 0
 3-21G
 ****


