%nproc=1
%NoSave
%Mem=1900MB
#P OB98/GEN NMR

erre ene a

0 1
  C        7.108     259.665    -225.278
  O        7.214     258.674    -224.277
  H        6.087     259.656    -225.672
  H        7.802     259.442    -226.094
  H        7.320     260.658    -224.874
  P        8.492     258.680    -223.313
  C        9.210     257.449    -221.162
  O        8.268     257.530    -222.220
  C        8.919     256.243    -220.260
  O        7.760     256.542    -219.436
  C        8.571     254.995    -221.080
  O        8.907     253.789    -220.402
  C        7.053     255.089    -221.207
  O        6.437     253.831    -221.467
  C        6.679     255.695    -219.852
  N        1.589     255.557    -219.544
  C        2.486     254.511    -219.654
  N        1.958     253.265    -219.683
  N        3.780     254.673    -219.750
  C        4.162     255.972    -219.783
  C        3.368     257.093    -219.707
  C        1.938     256.904    -219.564
  O        1.101     257.794    -219.488
  N        4.118     258.244    -219.779
  C        5.355     257.823    -219.906
  N        5.442     256.452    -219.889
  O        8.304     260.021    -222.448
  O        9.823     258.656    -224.003
  H        5.494     253.995    -221.647
  H        9.161     260.315    -222.091
  H        0.604     255.378    -219.444
  H        6.223     258.458    -219.999
  H        6.564     254.901    -219.095
  H        6.819     255.749    -222.047
  H        0.964     253.113    -219.809
  H        9.039     254.993    -222.066
  H        2.552     252.525    -220.068
  H        9.761     256.070    -219.576
  H        9.141     258.382    -220.595
  H       10.224     257.393    -221.561
  P       10.358     253.153    -220.641
  C       11.733     251.406    -219.208
  O       10.514     251.814    -219.784
  O       11.349     254.185    -219.933
  O       10.705     252.941    -222.089
  H       11.935     254.600    -220.592
  H       11.589     250.484    -218.685
  H       12.072     252.155    -218.523
  H       12.463     251.270    -219.978

 6  7  8  9  10  11  12  13  14  15  26  29  33  34 0
 6-311+G(2d,p)
 ****
 36  38  39  40  41 0
 6-311+G(2d,p)
 ****
 1  2  3  4  5  16  17  18  19  20  21  22  23  24  25 0
 3-21G
 ****
 27  28  30  31  32  35  37  42  43  44  45  46  47 0
 3-21G
 ****
 48  49 0
 3-21G
 ****


