%nproc=1
%NoSave
%Mem=1900MB
#P OB98/GEN NMR

erre ene a

0 1
  C      157.833      98.170     366.483
  O      157.350      96.985     367.086
  P      155.772      96.771     367.267
  C      153.884      98.272     368.152
  O      155.243      97.878     368.301
  C      153.566      99.437     369.087
  O      154.189     100.648     368.614
  C      152.075      99.755     369.195
  O      151.418      98.819     370.022
  C      152.123     101.175     369.751
  O      152.320     101.156     371.172
  C      153.362     101.753     369.047
  N      153.319     106.540     367.278
  C      153.564     106.032     368.507
  N      153.519     104.743     368.910
  C      153.148     103.947     367.893
  C      152.832     104.325     366.596
  C      152.951     105.689     366.289
  N      152.763     106.207     365.025
  N      152.469     103.215     365.850
  C      152.556     102.202     366.683
  N      153.026     102.585     367.911
  O      155.349      95.367     367.572
  O      155.159      97.257     365.870
  H      151.663     100.539     371.549
  H      154.687      96.513     365.448
  H      153.846     106.757     369.267
  H      152.314     101.175     366.445
  H      153.972     102.356     369.727
  H      151.203     101.731     369.557
  H      151.624      99.776     368.197
  H      153.985      99.204     370.075
  H      153.248      97.413     368.394
  H      153.017     107.174     364.884
  H      152.791     105.570     364.234
  H      153.702      98.562     367.111
  P      149.833      98.631     369.908
  C      147.983     100.367     370.296
  O      149.163      99.775     370.810
  O      149.327      97.246     370.151
  O      149.501      99.113     368.415
  H      148.741      98.611     368.070
  H      148.251     101.089     369.516
  H      147.473     100.890     371.104
  H      147.315      99.610     369.881
  H      158.902      98.141     366.445
  H      157.519      99.016     367.058
  H      157.443      98.249     365.490

 3  4  5  6  7  8  9  10  11  12  22  25  29  30  31  32 0
 6-311+G(2d,p)
 ****
 33  36  37 0
 6-311+G(2d,p)
 ****
 1  2  13  14  15  16  17  18  19  20  21  23  24  26 0
 3-21G
 ****
 27  28  34  35  38  39  40  41  42  43  44  45  46  47  48 0
 3-21G
 ****


