%nproc=1
%NoSave
%Mem=1900MB
#P OB98/GEN NMR

erre ene a

0 1
  C      632.507     690.030     213.059
  O      631.627     689.790     211.982
  H      633.186     690.846     212.787
  H      633.100     689.130     213.262
  H      631.947     690.317     213.958
  P      630.434     688.756     212.237
  C      630.147     688.641     209.630
  O      629.546     688.776     210.903
  C      629.477     689.559     208.601
  O      628.098     689.132     208.436
  C      629.446     691.030     209.014
  O      629.603     691.833     207.835
  C      628.052     691.222     209.584
  O      627.633     692.587     209.535
  C      627.242     690.261     208.691
  N      625.980     689.858     209.313
  C      624.907     689.607     208.452
  O      625.038     689.738     207.234
  N      623.687     689.260     208.999
  C      623.545     689.223     210.281
  N      622.310     688.904     210.757
  C      624.640     689.540     211.231
  C      625.805     689.839     210.675
  O      629.529     689.546     213.301
  O      630.878     687.399     212.689
  H      626.702     692.636     209.829
  H      629.398     690.481     213.078
  H      624.465     689.508     212.301
  H      626.679     690.070     211.301
  H      627.008     690.740     207.724
  H      628.015     690.902     210.623
  H      630.237     691.292     209.726
  H      629.972     689.419     207.641
  H      621.585     688.722     210.069
  H      630.087     687.602     209.281
  H      622.062     688.900     211.737
  H      631.217     688.904     209.730
  P      631.079     692.210     207.318
  C      630.416     694.393     206.072
  O      630.952     693.067     205.964
  O      632.048     691.083     207.269
  O      631.543     693.323     208.386
  H      632.484     693.161     208.585
  H      630.388     694.846     205.103
  H      631.035     694.976     206.721
  H      629.425     694.346     206.473

 6  7  8  9  10  11  12  13  14  15  16  26  30  31  32  33  35 0
 6-311+G(2d,p)
 ****
 37  38 0
 6-311+G(2d,p)
 ****
 1  2  3  4  5  17  18  19  20  21  22  23  24  25 0
 3-21G
 ****
 27  28  29  34  36  39  40  41  42  43  44  45  46 0
 3-21G
 ****


