%nproc=1
%NoSave
%Mem=1900MB
#P OB98/GEN NMR

erre ene a

0 1
  C       28.829    -136.171    -282.027
  O       29.876    -136.913    -281.437
  H       28.634    -135.289    -281.415
  H       27.926    -136.783    -282.060
  H       29.097    -135.848    -283.039
  P       30.599    -138.016    -282.349
  C       31.378    -136.806    -284.510
  O       31.720    -137.244    -283.204
  C       32.537    -136.026    -285.134
  O       32.306    -135.921    -286.572
  C       32.702    -134.600    -284.579
  O       34.100    -134.290    -284.514
  C       32.080    -133.742    -285.665
  O       32.566    -132.405    -285.648
  C       32.476    -134.533    -286.912
  N       32.328    -131.377    -290.814
  C       33.353    -131.667    -289.934
  N       34.501    -130.972    -290.074
  N       33.257    -132.572    -288.991
  C       32.063    -133.212    -288.974
  C       30.970    -133.008    -289.784
  C       31.082    -131.996    -290.812
  O       30.203    -131.680    -291.610
  N       29.926    -133.815    -289.408
  C       30.380    -134.485    -288.358
  N       31.673    -134.148    -288.058
  O       29.473    -138.366    -283.434
  O       31.070    -139.235    -281.628
  H       32.270    -131.964    -286.472
  H       28.969    -139.150    -283.148
  H       32.445    -130.665    -291.510
  H       29.814    -135.198    -287.776
  H       33.529    -134.373    -287.191
  H       30.990    -133.719    -285.546
  H       34.658    -130.284    -290.793
  H       32.244    -134.449    -283.598
  H       35.271    -131.203    -289.458
  H       33.460    -136.604    -285.001
  H       30.500    -136.156    -284.452
  H       31.129    -137.677    -285.129
  P       34.799    -134.251    -283.066
  C       35.439    -136.761    -282.850
  O       35.890    -135.422    -282.990
  O       33.633    -134.764    -282.095
  O       35.282    -132.897    -282.667
  H       33.696    -134.313    -281.234
  H       36.282    -137.419    -282.814
  H       34.821    -137.018    -283.684
  H       34.875    -136.855    -281.946

 6  7  8  9  10  11  12  13  14  15  26  29  33  34 0
 6-311+G(2d,p)
 ****
 36  38  39  40  41 0
 6-311+G(2d,p)
 ****
 1  2  3  4  5  16  17  18  19  20  21  22  23  24  25 0
 3-21G
 ****
 27  28  30  31  32  35  37  42  43  44  45  46  47 0
 3-21G
 ****
 48  49 0
 3-21G
 ****


