%nproc=1
%NoSave
%Mem=1900MB
#P OB98/GEN NMR

erre ene a

0 1
  C       84.786      28.265      27.853
  O       83.991      28.497      26.702
  P       82.406      28.253      26.739
  C       80.847      26.219      26.515
  O       82.186      26.663      26.704
  C       80.717      24.735      26.847
  O       81.372      24.479      28.113
  C       79.273      24.263      26.977
  O       79.173      22.929      26.466
  C       79.023      24.221      28.473
  O       77.988      23.277      28.803
  C       80.417      23.867      29.002
  N       82.098      22.715      33.716
  C       82.042      21.987      32.580
  N       81.559      22.347      31.369
  C       81.153      23.627      31.389
  C       81.153      24.497      32.468
  C       81.653      23.991      33.683
  N       81.720      24.744      34.838
  N       80.629      25.724      32.110
  C       80.341      25.602      30.834
  N       80.647      24.358      30.347
  O       81.627      29.008      25.720
  O       81.976      28.646      28.227
  H       77.955      23.217      29.779
  H       81.111      29.099      28.223
  H       82.434      20.973      32.652
  H       79.899      26.374      30.219
  H       80.590      22.782      28.992
  H       78.700      25.209      28.821
  H       78.565      24.916      26.457
  H       81.250      24.156      26.079
  H       80.577      26.380      25.466
  H       82.203      24.339      35.625
  H       81.553      25.738      34.770
  H       80.174      26.815      27.143
  P       77.860      22.611      25.587
  C       75.322      22.748      26.155
  O       76.647      22.672      26.632
  O       78.012      21.359      24.788
  O       77.736      23.950      24.714
  H       78.164      24.711      25.162
  H       74.644      22.821      27.010
  H       75.070      21.845      25.590
  H       75.191      23.629      25.522
  H       85.809      28.483      27.629
  H       84.696      27.240      28.148
  H       84.453      28.896      28.650

 3  4  5  6  7  8  9  10  11  12  22  25  29  30  31  32 0
 6-311+G(2d,p)
 ****
 33  36  37 0
 6-311+G(2d,p)
 ****
 1  2  13  14  15  16  17  18  19  20  21  23  24  26 0
 3-21G
 ****
 27  28  34  35  38  39  40  41  42  43  44  45  46  47  48 0
 3-21G
 ****


