%nproc=1
%NoSave
%Mem=1900MB
#P OB98/GEN NMR

erre ene a

0 1
  C      368.647     623.330    -891.830
  O      369.673     622.370    -892.110
  P      369.309     621.233    -893.180
  C      371.778     620.986    -893.960
  O      370.620     620.346    -893.440
  C      372.933     619.994    -894.100
  O      373.576     619.714    -892.840
  C      372.512     618.639    -894.660
  O      372.373     618.727    -896.070
  C      373.690     617.750    -894.220
  O      374.781     617.829    -895.150
  C      374.057     618.362    -892.870
  N      374.414     614.103    -890.120
  C      374.962     614.402    -891.350
  N      375.748     613.470    -891.870
  N      374.777     615.563    -891.950
  C      373.976     616.394    -891.270
  C      373.376     616.224    -890.040
  C      373.584     614.955    -889.370
  O      373.127     614.637    -888.280
  N      372.669     617.339    -889.650
  C      372.740     618.130    -890.700
  N      373.574     617.650    -891.690
  O      369.146     622.069    -894.560
  O      368.064     620.473    -892.870
  H      375.582     617.464    -894.720
  H      368.208     622.085    -894.820
  H      374.566     613.212    -889.680
  H      372.245     619.089    -890.780
  H      375.155     618.423    -892.740
  H      373.388     616.711    -894.180
  H      375.934     612.570    -891.470
  H      371.586     618.320    -894.190
  H      376.186     613.677    -892.790
  H      373.680     620.453    -894.770
  H      372.081     621.820    -893.310
  H      371.513     621.425    -894.940
  P      370.923     619.008    -896.660
  C      371.308     619.235    -899.220
  O      370.866     618.425    -898.150
  O      370.930     620.619    -896.890
  O      369.792     618.622    -895.770
  H      370.078     620.992    -896.570
  H      371.722     618.583    -900.000
  H      372.112     619.906    -898.890
  H      370.465     619.799    -899.620
  H      369.004     624.033    -891.107
  H      367.785     622.828    -891.444
  H      368.386     623.846    -892.730

 3  4  5  6  7  8  9  10  11  12  23  26  30  31 0
 6-311+G(2d,p)
 ****
 33  35  36  37  38 0
 6-311+G(2d,p)
 ****
 1  2  13  14  15  16  17  18  19  20  21  22  24  25 0
 3-21G
 ****
 27  28  29  32  34  39  40  41  42  43  44  45  46  47  48  49 0
 3-21G
 ****


