%nproc=1
%NoSave
%Mem=1900MB
#P OB98/GEN NMR

erre ene a

0 1
  C      271.336     122.821     115.386
  O      271.893     123.310     116.587
  H      270.264     123.050     115.382
  H      271.456     121.734     115.327
  H      271.797     123.299     114.517
  P      273.465     123.097     116.842
  C      273.476     125.177     118.389
  O      273.730     123.786     118.275
  C      273.575     125.612     119.848
  O      274.908     125.399     120.368
  C      273.304     127.095     120.094
  O      271.935     127.449     119.988
  C      273.824     127.222     121.516
  O      272.879     126.647     122.429
  C      275.116     126.372     121.429
  N      276.305     127.175     121.151
  C      276.960     127.730     122.258
  O      276.547     127.530     123.402
  N      278.078     128.506     122.052
  C      278.479     128.747     120.838
  N      279.581     129.540     120.683
  C      277.803     128.212     119.639
  C      276.735     127.446     119.872
  O      274.374     123.537     115.740
  O      273.601     121.544     117.202
  H      272.087     127.221     122.416
  H      274.560     121.353     117.361
  H      278.152     128.463     118.654
  H      276.182     127.017     119.040
  H      275.278     125.812     122.361
  H      273.990     128.263     121.823
  H      273.926     127.717     119.437
  H      272.895     124.977     120.428
  H      280.020     129.891     121.523
  H      272.479     125.380     117.986
  H      279.915     129.833     119.784
  H      274.217     125.741     117.806
  P      271.606     129.001     119.707
  C      269.562     128.054     118.392
  O      270.077     129.061     119.245
  O      272.428     129.306     118.371
  O      271.957     129.936     120.821
  H      273.281     129.748     118.579
  H      268.531     128.253     118.188
  H      269.654     127.101     118.869
  H      270.113     128.048     117.475

 6  7  8  9  10  11  12  13  14  15  16  26  30  31  32  33  35 0
 6-311+G(2d,p)
 ****
 37  38 0
 6-311+G(2d,p)
 ****
 1  2  3  4  5  17  18  19  20  21  22  23  24  25 0
 3-21G
 ****
 27  28  29  34  36  39  40  41  42  43  44  45  46 0
 3-21G
 ****


