%nproc=1
%NoSave
%Mem=1900MB
#P OB98/GEN NMR

erre ene a

0 1
  C      110.019     471.364     102.756
  O      110.339     471.838     104.050
  H      109.345     470.510     102.856
  H      110.924     471.038     102.233
  H      109.514     472.143     102.176
  P      111.354     473.070     104.181
  C      109.436     474.798     104.302
  O      110.582     474.349     103.591
  C      109.173     476.270     104.002
  O      107.961     476.705     104.650
  C      110.275     477.216     104.478
  O      111.346     477.241     103.548
  C      109.515     478.530     104.527
  O      109.354     479.045     103.192
  C      108.150     478.083     105.085
  N      105.599     480.063     108.999
  C      105.515     480.352     107.650
  N      104.651     481.328     107.298
  N      106.223     479.747     106.731
  C      107.094     478.844     107.236
  C      107.282     478.484     108.551
  C      106.444     479.114     109.551
  O      106.469     478.868     110.754
  N      108.322     477.601     108.688
  C      108.727     477.387     107.452
  N      108.020     478.126     106.531
  O      112.719     472.863     103.602
  O      111.406     473.372     105.752
  H      110.217     479.400     102.915
  H      112.135     472.884     106.180
  H      105.032     480.568     109.658
  H      109.523     476.708     107.163
  H      107.326     478.674     104.674
  H      110.029     479.296     105.108
  H      104.192     481.929     107.969
  H      110.614     476.961     105.488
  H      104.620     481.594     106.320
  H      109.010     476.370     102.922
  H      109.632     474.653     105.367
  H      108.557     474.204     104.025
  P      112.529     478.321     103.659
  C      113.369     476.809     105.579
  O      113.145     478.129     105.124
  O      112.132     479.720     103.326
  O      113.689     477.734     102.733
  H      113.584     477.980     101.780
  H      113.780     476.837     106.566
  H      114.054     476.316     104.921
  H      112.442     476.275     105.594

 6  7  8  9  10  11  12  13  14  15  26  29  33  34 0
 6-311+G(2d,p)
 ****
 36  38  39  40  41 0
 6-311+G(2d,p)
 ****
 1  2  3  4  5  16  17  18  19  20  21  22  23  24  25 0
 3-21G
 ****
 27  28  30  31  32  35  37  42  43  44  45  46  47 0
 3-21G
 ****
 48  49 0
 3-21G
 ****


