%nproc=1
%NoSave
%Mem=1900MB
#P OB98/GEN NMR

erre ene a

0 1
  C     -304.396    -300.737     289.347
  O     -305.424    -301.577     289.878
  P     -306.934    -301.199     289.492
  C     -307.745    -300.560     291.877
  O     -307.859    -301.456     290.778
  C     -307.887    -301.323     293.194
  O     -306.750    -302.180     293.440
  C     -307.977    -300.415     294.413
  O     -309.256    -299.809     294.505
  C     -307.661    -301.404     295.530
  O     -308.821    -302.192     295.849
  C     -306.594    -302.297     294.877
  N     -301.653    -303.466     294.267
  C     -302.780    -304.022     293.771
  N     -304.059    -303.653     293.984
  C     -304.118    -302.583     294.793
  C     -303.054    -301.907     295.371
  C     -301.769    -302.393     295.083
  N     -300.620    -301.836     295.600
  N     -303.506    -300.860     296.144
  C     -304.821    -300.914     296.055
  N     -305.237    -301.931     295.240
  O     -307.359    -302.364     288.481
  O     -307.073    -299.848     288.871
  H     -309.457    -301.604     296.306
  H     -307.419    -302.013     287.573
  H     -302.635    -304.877     293.119
  H     -305.509    -300.245     296.558
  H     -306.724    -303.354     295.132
  H     -307.332    -300.917     296.453
  H     -307.200    -299.642     294.367
  H     -308.788    -301.950     293.130
  H     -308.513    -299.784     291.814
  H     -299.743    -302.293     295.407
  H     -300.700    -301.092     296.279
  H     -306.777    -300.052     291.817
  P     -309.363    -298.412     295.284
  C     -311.448    -299.110     296.612
  O     -310.935    -298.271     295.594
  O     -309.147    -297.363     294.100
  O     -308.456    -298.271     296.457
  H     -309.670    -297.596     293.309
  H     -312.511    -298.891     296.743
  H     -310.927    -298.921     297.554
  H     -311.338    -300.160     296.327
  H     -303.441    -301.091     289.675
  H     -304.541    -299.734     289.691
  H     -304.436    -300.757     288.278

 3  4  5  6  7  8  9  10  11  12  22  25  29  30  31  32 0
 6-311+G(2d,p)
 ****
 33  36  37 0
 6-311+G(2d,p)
 ****
 1  2  13  14  15  16  17  18  19  20  21  23  24  26 0
 3-21G
 ****
 27  28  34  35  38  39  40  41  42  43  44  45  46  47  48 0
 3-21G
 ****


