%nproc=1
%NoSave
%Mem=1900MB
#P OB98/GEN NMR

erre ene a

0 1
  C     -123.628     546.004     689.177
  O     -124.348     546.426     688.030
  H     -122.556     546.108     688.979
  H     -123.839     544.940     689.384
  H     -123.895     546.615     690.039
  P     -125.946     546.359     688.072
  C     -127.588     544.511     688.875
  O     -126.314     544.809     688.285
  C     -128.038     543.123     688.457
  O     -127.027     542.142     688.767
  C     -129.325     542.664     689.150
  O     -130.456     543.211     688.505
  C     -129.197     541.147     688.975
  O     -129.546     540.795     687.618
  C     -127.696     540.935     689.212
  N     -125.946     537.491     692.509
  C     -126.257     537.367     691.169
  N     -126.107     536.121     690.641
  N     -126.668     538.330     690.421
  C     -126.835     539.508     691.097
  C     -126.593     539.759     692.437
  C     -126.061     538.662     693.239
  O     -125.758     538.752     694.426
  N     -126.932     541.045     692.770
  C     -127.354     541.575     691.637
  N     -127.337     540.679     690.600
  O     -126.667     546.995     686.924
  O     -126.334     547.026     689.471
  H     -129.434     539.831     687.530
  H     -126.506     547.979     689.368
  H     -125.644     536.698     693.037
  H     -127.678     542.596     691.526
  H     -127.297     540.102     688.610
  H     -129.854     540.578     689.633
  H     -126.061     535.305     691.220
  H     -129.303     542.885     690.224
  H     -126.369     535.995     689.666
  H     -128.169     543.120     687.365
  H     -128.294     545.283     688.509
  H     -127.525     544.584     689.961
  P     -131.939     542.892     689.040
  C     -133.417     540.757     689.139
  O     -132.138     541.302     688.840
  O     -133.019     543.725     688.450
  O     -131.835     543.014     690.645
  H     -131.990     543.944     690.979
  H     -133.405     539.702     688.963
  H     -134.155     541.215     688.514
  H     -133.653     540.944     690.166

 6  7  8  9  10  11  12  13  14  15  26  29  33  34 0
 6-311+G(2d,p)
 ****
 36  38  39  40  41 0
 6-311+G(2d,p)
 ****
 1  2  3  4  5  16  17  18  19  20  21  22  23  24  25 0
 3-21G
 ****
 27  28  30  31  32  35  37  42  43  44  45  46  47 0
 3-21G
 ****
 48  49 0
 3-21G
 ****


