%nproc=1
%NoSave
%Mem=1900MB
#P OB98/GEN NMR

erre ene a

0 1
  C     -467.316     310.645    -125.352
  O     -468.355     310.709    -126.331
  P     -467.971     310.830    -127.879
  C     -468.883     308.648    -128.931
  O     -467.736     309.362    -128.485
  C     -468.999     307.317    -128.187
  O     -469.305     307.514    -126.791
  C     -470.134     306.448    -128.711
  O     -469.975     305.887    -129.998
  C     -470.357     305.479    -127.559
  O     -469.429     304.385    -127.604
  C     -470.074     306.383    -126.333
  N     -471.294     306.803    -125.650
  C     -471.844     305.888    -124.753
  O     -471.374     304.765    -124.568
  N     -472.975     306.294    -124.108
  C     -473.621     307.488    -124.286
  O     -474.656     307.792    -123.695
  C     -473.013     308.397    -125.262
  C     -471.896     308.028    -125.891
  O     -466.918     311.831    -128.212
  O     -469.371     311.256    -128.556
  H     -468.566     304.724    -127.300
  H     -469.181     311.926    -129.233
  H     -473.385     305.648    -123.448
  H     -473.501     309.352    -125.433
  H     -471.425     308.689    -126.616
  H     -469.448     305.849    -125.604
  H     -471.363     305.040    -127.580
  H     -471.039     307.068    -128.773
  H     -468.041     306.799    -128.246
  H     -468.811     308.468    -130.011
  H     -469.769     309.272    -128.777
  P     -469.916     306.771    -131.337
  C     -467.767     305.691    -132.300
  O     -468.390     306.853    -131.823
  O     -470.713     308.033    -131.362
  O     -470.537     305.760    -132.409
  H     -471.025     306.279    -133.081
  H     -466.734     305.925    -132.568
  H     -468.276     305.321    -133.197
  H     -467.759     304.910    -131.527
  H     -467.749     310.567    -124.377
  H     -466.719     311.531    -125.407
  H     -466.702     309.789    -125.539

 3  4  5  6  7  8  9  10  11  12  13  23  28  29  30  31  32 0
 6-311+G(2d,p)
 ****
 33  34 0
 6-311+G(2d,p)
 ****
 1  2  14  15  16  17  18  19  20  21  22  24  25  26  27 0
 3-21G
 ****
 35  36  37  38  39  40  41  42  43  44  45 0
 3-21G
 ****


