%nproc=1
%NoSave
%Mem=1900MB
#P OB98/GEN NMR

erre ene a

0 1
  C      226.588    -976.884     379.845
  O      225.392    -976.377     379.278
  H      226.874    -977.795     379.306
  H      226.450    -977.138     380.896
  H      227.397    -976.152     379.744
  P      224.687    -975.125     379.996
  C      223.868    -974.630     382.400
  O      224.546    -975.539     381.535
  C      222.699    -975.333     383.088
  O      223.150    -976.543     383.737
  C      222.057    -974.495     384.174
  O      221.238    -973.482     383.625
  C      221.328    -975.561     384.971
  O      220.093    -975.929     384.344
  C      222.339    -976.733     384.920
  N      223.175    -976.814     386.109
  C      223.738    -978.075     386.378
  O      223.517    -979.030     385.621
  N      224.514    -978.222     387.501
  C      224.723    -977.206     388.279
  N      225.486    -977.420     389.389
  C      224.159    -975.866     388.033
  C      223.398    -975.742     386.946
  O      223.422    -974.612     379.373
  O      225.839    -974.013     380.028
  H      220.288    -975.984     383.385
  H      225.808    -973.471     379.222
  H      224.360    -975.051     388.709
  H      222.951    -974.788     386.688
  H      221.816    -977.692     384.793
  H      221.097    -975.226     385.982
  H      222.828    -974.061     384.825
  H      221.966    -975.617     382.320
  H      225.852    -978.362     389.523
  H      223.504    -973.807     381.782
  H      225.802    -976.693     390.014
  H      224.560    -974.232     383.149
  P      221.240    -971.998     384.241
  C      220.822    -971.029     386.593
  O      220.654    -972.158     385.718
  O      220.587    -970.955     383.400
  O      222.802    -971.713     384.498
  H      223.284    -971.544     383.657
  H      220.393    -971.251     387.548
  H      220.333    -970.176     386.172
  H      221.865    -970.821     386.710

 6  7  8  9  10  11  12  13  14  15  16  26  30  31  32  33  35 0
 6-311+G(2d,p)
 ****
 37  38 0
 6-311+G(2d,p)
 ****
 1  2  3  4  5  17  18  19  20  21  22  23  24  25 0
 3-21G
 ****
 27  28  29  34  36  39  40  41  42  43  44  45  46 0
 3-21G
 ****


