%nproc=1
%NoSave
%Mem=1900MB
#P OB98/GEN NMR

erre ene a

0 1
  C      -28.651      11.333    -203.441
  O      -29.795      10.804    -204.082
  P      -30.386       9.368    -203.679
  C      -29.264       8.336    -205.757
  O      -29.414       8.271    -204.345
  C      -29.491       6.952    -206.382
  O      -28.432       6.054    -205.933
  C      -30.841       6.323    -205.975
  O      -31.650       5.887    -207.069
  C      -30.428       5.239    -204.995
  O      -31.392       4.219    -204.819
  C      -29.065       4.813    -205.561
  N      -28.274       4.051    -204.600
  C      -28.818       2.848    -204.141
  O      -29.904       2.395    -204.501
  N      -28.099       2.189    -203.187
  C      -26.968       2.653    -202.570
  O      -26.428       2.055    -201.656
  C      -26.459       3.941    -203.068
  C      -27.113       4.559    -204.057
  O      -31.830       9.170    -203.977
  O      -30.011       9.245    -202.124
  H      -31.510       3.764    -205.678
  H      -29.059       9.286    -201.926
  H      -28.478       1.319    -202.847
  H      -25.574       4.339    -202.591
  H      -26.761       5.517    -204.441
  H      -29.178       4.220    -206.469
  H      -30.281       5.710    -204.008
  H      -31.480       7.057    -205.455
  H      -29.420       7.062    -207.474
  H      -28.244       8.670    -205.990
  H      -29.953       9.076    -206.175
  P      -33.239       5.696    -207.028
  C      -33.342       3.113    -206.671
  O      -33.557       4.403    -206.129
  O      -33.925       5.728    -208.342
  O      -33.740       6.904    -206.101
  H      -34.640       7.163    -206.359
  H      -34.040       2.416    -206.197
  H      -32.319       2.796    -206.455
  H      -33.511       3.101    -207.751
  H      -28.423      12.294    -203.853
  H      -27.821      10.674    -203.592
  H      -28.843      11.431    -202.393

 3  4  5  6  7  8  9  10  11  12  13  23  28  29  30  31  32 0
 6-311+G(2d,p)
 ****
 33  34 0
 6-311+G(2d,p)
 ****
 1  2  14  15  16  17  18  19  20  21  22  24  25  26  27 0
 3-21G
 ****
 35  36  37  38  39  40  41  42  43  44  45 0
 3-21G
 ****


