%nproc=1
%NoSave
%Mem=1900MB
#P OB98/GEN NMR

erre ene a

0 1
  C       10.345     -53.934    -663.233
  O        9.276     -54.086    -664.146
  H       10.291     -54.706    -662.458
  H       11.289     -54.039    -663.775
  H       10.312     -52.940    -662.776
  P        7.796     -53.980    -663.527
  C        7.518     -56.513    -663.070
  O        7.628     -55.210    -662.510
  C        6.722     -57.422    -662.145
  O        6.696     -58.754    -662.727
  C        7.305     -57.533    -660.718
  O        6.282     -57.306    -659.739
  C        7.763     -58.980    -660.619
  O        7.599     -59.521    -659.310
  C        6.874     -59.686    -661.642
  N        6.041     -64.660    -662.402
  C        5.187     -63.618    -662.275
  N        5.473     -62.301    -662.174
  C        6.802     -62.098    -662.245
  C        7.796     -63.055    -662.396
  C        7.377     -64.393    -662.459
  N        8.244     -65.452    -662.531
  N        9.049     -62.462    -662.424
  C        8.814     -61.181    -662.247
  N        7.476     -60.916    -662.115
  O        6.857     -54.373    -664.766
  O        7.450     -52.634    -662.983
  H        6.641     -59.481    -659.104
  H        6.275     -53.617    -664.970
  H        4.134     -63.882    -662.249
  H        9.576     -60.409    -662.148
  H        5.885     -59.915    -661.231
  H        8.818     -59.042    -660.896
  H        8.137     -56.840    -660.547
  H        5.683     -57.065    -662.103
  H        8.527     -56.935    -663.212
  H        7.866     -66.383    -662.452
  H        9.234     -65.269    -662.468
  H        7.032     -56.438    -664.050
  P        6.219     -55.820    -659.122
  C        7.991     -56.059    -657.225
  O        7.661     -55.485    -658.487
  O        5.267     -55.999    -657.839
  O        5.677     -54.793    -660.054
  H        4.508     -55.388    -657.896
  H        8.973     -55.747    -656.937
  H        7.964     -57.126    -657.300
  H        7.284     -55.735    -656.490

 6  7  8  9  10  11  12  13  14  15  25  28  32  33  34  35 0
 6-311+G(2d,p)
 ****
 36  39  40 0
 6-311+G(2d,p)
 ****
 1  2  3  4  5  16  17  18  19  20  21  22  23  24 0
 3-21G
 ****
 26  27  29  30  31  37  38  41  42  43  44  45  46  47  48 0
 3-21G
 ****


