%nproc=1
%NoSave
%Mem=1900MB
#P OB98/GEN NMR

erre ene a

0 1
  C     -313.674     100.057     111.022
  O     -313.624      99.225     109.881
  H     -313.224      99.524     111.863
  H     -314.716     100.286     111.266
  H     -313.121     100.986     110.859
  P     -313.881      99.874     108.441
  C     -311.343     100.198     108.113
  O     -312.543      99.662     107.578
  C     -310.113      99.629     107.384
  O     -310.088      98.189     107.538
  C     -310.199      99.918     105.883
  O     -308.909     100.026     105.281
  C     -310.900      98.683     105.342
  O     -310.671      98.474     103.951
  C     -310.317      97.597     106.245
  N     -311.602      93.007     104.443
  C     -310.737      93.937     103.912
  N     -310.155      93.617     102.734
  N     -310.480      95.092     104.478
  C     -311.190      95.308     105.609
  C     -312.098      94.472     106.221
  C     -312.344      93.184     105.607
  O     -313.116      92.321     106.026
  N     -312.633      95.047     107.347
  C     -312.059      96.231     107.415
  N     -311.166      96.432     106.390
  O     -313.864     101.452     108.726
  O     -315.149      99.453     107.758
  H     -309.803      98.039     103.858
  H     -314.377     101.927     108.047
  H     -311.755      92.127     103.980
  H     -312.253      96.974     108.179
  H     -309.347      97.248     105.852
  H     -311.982      98.813     105.475
  H     -310.452      92.830     102.181
  H     -310.765     100.826     105.673
  H     -309.758      94.391     102.196
  H     -309.193     100.015     107.839
  H     -311.308      99.929     109.172
  H     -311.350     101.290     108.050
  P     -308.582     101.365     104.468
  C     -307.113     103.030     105.875
  O     -307.171     101.922     104.992
  O     -309.648     102.414     105.024
  O     -308.662     101.207     102.985
  H     -310.353     102.565     104.364
  H     -306.091     103.248     106.107
  H     -307.641     102.796     106.776
  H     -307.562     103.882     105.409

 6  7  8  9  10  11  12  13  14  15  26  29  33  34 0
 6-311+G(2d,p)
 ****
 36  38  39  40  41 0
 6-311+G(2d,p)
 ****
 1  2  3  4  5  16  17  18  19  20  21  22  23  24  25 0
 3-21G
 ****
 27  28  30  31  32  35  37  42  43  44  45  46  47 0
 3-21G
 ****
 48  49 0
 3-21G
 ****


