%nproc=1
%NoSave
%Mem=1900MB
#P OB98/GEN NMR

erre ene a

0 1
  C     -369.179     194.034    -339.917
  O     -368.905     194.822    -341.059
  H     -370.136     194.351    -339.493
  H     -368.403     194.165    -339.161
  H     -369.256     192.979    -340.196
  P     -367.514     194.604    -341.821
  C     -366.854     197.065    -341.346
  O     -367.053     196.057    -342.331
  C     -365.870     198.121    -341.848
  O     -364.541     197.568    -341.909
  C     -366.174     198.640    -343.251
  O     -367.269     199.527    -343.226
  C     -364.837     199.255    -343.613
  O     -364.675     200.543    -342.991
  C     -363.851     198.227    -343.002
  N     -363.356     197.251    -343.967
  C     -362.546     197.746    -344.993
  O     -362.294     198.952    -345.057
  N     -362.059     196.868    -345.930
  C     -362.315     195.594    -345.829
  N     -361.797     194.780    -346.782
  C     -363.135     195.026    -344.743
  C     -363.632     195.898    -343.867
  O     -367.497     193.542    -342.878
  O     -366.478     194.286    -340.644
  H     -365.347     201.123    -343.399
  H     -366.389     193.323    -340.519
  H     -363.321     193.964    -344.693
  H     -364.246     195.563    -343.034
  H     -362.982     198.741    -342.569
  H     -364.723     199.407    -344.691
  H     -366.366     197.801    -343.931
  H     -365.857     198.941    -341.119
  H     -361.227     195.214    -347.497
  H     -366.457     196.575    -340.453
  H     -361.798     193.773    -346.716
  H     -367.809     197.537    -341.081
  P     -368.738     199.076    -343.698
  C     -368.906     201.202    -345.134
  O     -369.501     200.428    -344.099
  O     -369.466     198.201    -342.734
  O     -368.482     198.384    -345.115
  H     -368.106     197.474    -344.991
  H     -369.500     202.074    -345.313
  H     -368.850     200.618    -346.029
  H     -367.921     201.496    -344.838

 6  7  8  9  10  11  12  13  14  15  16  26  30  31  32  33  35 0
 6-311+G(2d,p)
 ****
 37  38 0
 6-311+G(2d,p)
 ****
 1  2  3  4  5  17  18  19  20  21  22  23  24  25 0
 3-21G
 ****
 27  28  29  34  36  39  40  41  42  43  44  45  46 0
 3-21G
 ****


