%nproc=1
%NoSave
%Mem=1900MB
#P OB98/GEN NMR

erre ene a

0 1
  C     -139.139     137.402     494.722
  O     -139.151     136.370     495.725
  P     -140.225     136.337     496.913
  C     -141.229     137.951     498.664
  O     -140.230     137.752     497.673
  C     -141.184     139.377     499.235
  O     -139.877     139.676     499.758
  C     -141.481     140.479     498.222
  O     -142.865     140.557     497.932
  C     -140.899     141.696     498.937
  O     -141.836     142.222     499.901
  C     -139.671     141.100     499.641
  N     -138.421     141.402     498.949
  C     -137.960     142.717     499.044
  O     -138.610     143.568     499.640
  N     -136.763     143.041     498.433
  C     -136.137     142.149     497.744
  N     -134.950     142.519     497.170
  C     -136.634     140.768     497.536
  C     -137.779     140.470     498.167
  O     -140.075     135.158     497.834
  O     -141.655     136.297     496.194
  H     -142.188     141.446     500.392
  H     -142.286     135.802     496.756
  H     -136.089     140.065     496.928
  H     -138.204     139.478     498.087
  H     -139.594     141.477     500.683
  H     -140.652     142.511     498.250
  H     -140.904     140.295     497.300
  H     -141.906     139.428     500.066
  H     -134.630     143.460     497.332
  H     -141.055     137.238     499.480
  H     -134.381     141.902     496.609
  H     -142.210     137.749     498.226
  P     -143.447     139.849     496.619
  C     -144.312     140.594     494.311
  O     -143.655     140.988     495.505
  O     -144.625     138.941     496.832
  O     -142.191     139.031     496.034
  H     -142.515     138.219     495.586
  H     -144.734     141.486     493.835
  H     -145.114     139.875     494.510
  H     -143.572     140.144     493.632
  H     -138.339     137.222     494.034
  H     -138.998     138.353     495.191
  H     -140.070     137.398     494.195

 3  4  5  6  7  8  9  10  11  12  13  23  27  28  29  30  32 0
 6-311+G(2d,p)
 ****
 34  35 0
 6-311+G(2d,p)
 ****
 1  2  14  15  16  17  18  19  20  21  22  24  25  26 0
 3-21G
 ****
 31  33  36  37  38  39  40  41  42  43  44  45  46 0
 3-21G
 ****


