%nproc=1
%NoSave
%Mem=1900MB
#P OB98/GEN NMR

erre ene a

0 1
  C     1376.794    -306.080      83.320
  O     1375.954    -307.140      82.858
  P     1375.834    -307.553      81.295
  C     1376.316    -310.110      81.525
  O     1376.741    -308.838      81.070
  C     1377.410    -310.863      82.349
  O     1377.685    -310.113      83.570
  C     1376.905    -312.223      82.793
  O     1377.003    -313.330      81.903
  C     1377.562    -312.452      84.168
  O     1378.781    -313.211      84.058
  C     1377.851    -311.009      84.653
  N     1376.097    -312.230      89.312
  C     1376.862    -312.962      88.466
  N     1377.221    -314.194      88.886
  N     1377.301    -312.533      87.296
  C     1376.799    -311.287      86.941
  C     1376.017    -310.479      87.701
  C     1375.610    -310.949      89.051
  O     1374.947    -310.310      89.819
  N     1375.713    -309.325      87.031
  C     1376.323    -309.444      85.886
  N     1377.006    -310.686      85.779
  O     1375.960    -306.424      80.311
  O     1374.318    -308.129      81.206
  H     1379.240    -313.147      84.900
  H     1374.010    -307.892      80.295
  H     1375.819    -312.584      90.215
  H     1376.302    -308.707      85.086
  H     1378.879    -310.923      84.995
  H     1376.901    -313.037      84.826
  H     1376.826    -314.621      89.711
  H     1375.817    -312.103      83.027
  H     1377.608    -314.806      88.166
  H     1378.366    -310.889      81.810
  H     1376.055    -310.707      80.646
  H     1375.405    -310.021      82.116
  P     1376.095    -313.557      80.593
  C     1378.130    -313.907      79.042
  O     1377.000    -313.112      79.316
  O     1374.991    -312.396      80.669
  O     1375.464    -314.921      80.486
  H     1374.247    -312.603      80.062
  H     1378.796    -313.364      78.398
  H     1377.809    -314.838      78.524
  H     1378.678    -314.185      79.990
  H     1376.708    -305.994      84.383
  H     1376.493    -305.161      82.863
  H     1377.810    -306.291      83.060

 3  4  5  6  7  8  9  10  11  12  23  26  30  31 0
 6-311+G(2d,p)
 ****
 33  35  36  37  38 0
 6-311+G(2d,p)
 ****
 1  2  13  14  15  16  17  18  19  20  21  22  24  25 0
 3-21G
 ****
 27  28  29  32  34  39  40  41  42  43  44  45  46  47  48  49 0
 3-21G
 ****


