%nproc=1
%NoSave
%Mem=1900MB
#P OB98/GEN NMR

erre ene a

0 1
  C      302.936     131.550      43.966
  O      302.348     132.352      44.971
  H      302.459     131.757      43.006
  H      303.997     131.804      43.892
  H      302.844     130.490      44.211
  P      300.874     131.947      45.462
  C      298.467     132.505      44.670
  O      299.853     132.548      44.372
  C      297.759     133.728      44.085
  O      298.223     134.914      44.792
  C      298.010     133.947      42.584
  O      296.795     134.409      41.983
  C      299.029     135.073      42.564
  O      298.996     135.824      41.356
  C      298.613     135.872      43.796
  N      301.148     140.191      42.888
  C      299.949     139.738      42.455
  N      299.321     138.594      42.789
  C      300.023     137.921      43.720
  C      301.252     138.256      44.258
  C      301.831     139.448      43.791
  N      303.081     139.884      44.172
  N      301.676     137.278      45.140
  C      300.727     136.358      45.110
  N      299.711     136.702      44.267
  O      300.665     132.898      46.739
  O      300.682     130.508      45.802
  H      299.658     136.542      41.410
  H      301.014     132.458      47.533
  H      299.435     140.373      41.737
  H      300.746     135.423      45.653
  H      297.763     136.537      43.601
  H      300.033     134.660      42.683
  H      298.364     133.052      42.061
  H      296.684     133.636      44.286
  H      298.331     132.502      45.758
  H      303.459     140.692      43.702
  H      303.646     139.288      44.760
  H      298.035     131.584      44.260
  P      295.895     133.327      41.210
  C      296.400     131.877      39.105
  O      296.471     133.157      39.722
  O      294.512     134.094      40.989
  O      295.704     132.050      41.965
  H      293.766     133.464      41.015
  H      296.822     131.930      38.123
  H      295.377     131.570      39.037
  H      296.947     131.168      39.691

 6  7  8  9  10  11  12  13  14  15  25  28  32  33  34  35 0
 6-311+G(2d,p)
 ****
 36  39  40 0
 6-311+G(2d,p)
 ****
 1  2  3  4  5  16  17  18  19  20  21  22  23  24 0
 3-21G
 ****
 26  27  29  30  31  37  38  41  42  43  44  45  46  47 0
 3-21G
 ****
 48 0
 3-21G
 ****


