%nproc=1
%NoSave
%Mem=1900MB
#P OB98/GEN NMR

erre ene a

0 1
  C     -594.853    -894.220    -233.071
  O     -594.387    -894.990    -234.174
  P     -595.413    -895.930    -234.960
  C     -595.075    -895.140    -237.416
  O     -594.888    -896.190    -236.466
  C     -594.269    -895.420    -238.671
  O     -592.835    -895.360    -238.426
  C     -594.510    -896.830    -239.237
  O     -595.776    -897.080    -239.789
  C     -593.300    -897.040    -240.134
  O     -593.482    -896.430    -241.421
  C     -592.190    -896.290    -239.356
  N     -591.290    -897.190    -238.648
  C     -590.106    -897.520    -239.319
  O     -589.859    -897.130    -240.443
  N     -589.261    -898.370    -238.630
  C     -589.476    -898.910    -237.416
  O     -588.686    -899.670    -236.861
  C     -590.742    -898.540    -236.744
  C     -591.570    -897.700    -237.391
  O     -596.842    -895.560    -234.865
  O     -595.140    -897.370    -234.271
  H     -592.660    -896.610    -241.929
  H     -596.011    -897.810    -234.152
  H     -588.395    -898.610    -239.109
  H     -590.940    -898.960    -235.779
  H     -592.516    -897.420    -236.921
  H     -591.583    -895.670    -240.026
  H     -593.073    -898.100    -240.298
  H     -594.403    -897.540    -238.402
  H     -594.473    -894.670    -239.413
  H     -594.760    -894.190    -236.977
  H     -596.143    -895.060    -237.619
  P     -596.476    -898.510    -239.738
  C     -598.680    -897.680    -238.638
  O     -598.078    -898.300    -239.744
  O     -595.940    -899.540    -238.825
  O     -596.221    -899.030    -241.266
  H     -596.117    -900.000    -241.248
  H     -599.741    -897.630    -238.796
  H     -598.291    -896.680    -238.490
  H     -598.472    -898.290    -237.723
  H     -594.042    -893.653    -232.664
  H     -595.244    -894.874    -232.319
  H     -595.624    -893.555    -233.401

 3  4  5  6  7  8  9  10  11  12  13  23  28  29  30  31  32 0
 6-311+G(2d,p)
 ****
 33  34 0
 6-311+G(2d,p)
 ****
 1  2  14  15  16  17  18  19  20  21  22  24  25  26  27 0
 3-21G
 ****
 35  36  37  38  39  40  41  42  43  44  45 0
 3-21G
 ****


