%nproc=1
%NoSave
%Mem=1900MB
#P OB98/GEN NMR

erre ene a

0 1
  C     -364.837     757.855     532.024
  O     -365.884     758.334     532.894
  P     -367.259     757.531     533.078
  C     -368.580     759.736     532.984
  O     -368.360     758.526     533.700
  C     -370.078     759.956     532.683
  O     -370.585     758.947     531.806
  C     -370.963     759.922     533.937
  O     -370.888     761.154     534.636
  C     -372.326     759.620     533.297
  O     -372.927     760.822     532.792
  C     -371.957     758.669     532.166
  N     -375.178     754.693     532.132
  C     -375.301     755.971     531.680
  N     -374.400     756.958     531.719
  C     -373.258     756.553     532.293
  C     -372.984     755.284     532.806
  C     -374.013     754.328     532.700
  N     -373.888     753.034     533.180
  N     -371.689     755.237     533.332
  C     -371.199     756.440     533.130
  N     -372.111     757.272     532.506
  O     -367.105     756.232     533.826
  O     -367.793     757.256     531.594
  H     -373.808     760.589     532.430
  H     -368.332     756.454     531.567
  H     -376.268     756.214     531.214
  H     -370.209     756.763     533.402
  H     -372.542     758.860     531.271
  H     -373.037     759.196     534.021
  H     -370.669     759.083     534.583
  H     -370.161     760.911     532.171
  H     -368.035     759.686     532.031
  H     -374.679     752.430     533.095
  H     -373.036     752.769     533.641
  H     -368.193     760.581     533.568
  P     -369.783     761.359     535.775
  C     -371.492     760.681     537.557
  O     -370.564     761.664     537.154
  O     -368.693     762.321     535.422
  O     -369.184     759.867     536.003
  H     -368.258     759.937     536.280
  H     -372.435     760.840     537.002
  H     -371.678     760.797     538.616
  H     -371.119     759.653     537.374
  H     -364.013     758.537     532.048
  H     -365.210     757.782     531.024
  H     -364.512     756.891     532.355

 3  4  5  6  7  8  9  10  11  12  22  25  29  30  31  32 0
 6-311+G(2d,p)
 ****
 33  36  37 0
 6-311+G(2d,p)
 ****
 1  2  13  14  15  16  17  18  19  20  21  23  24  26 0
 3-21G
 ****
 27  28  34  35  38  39  40  41  42  43  44  45  46  47  48 0
 3-21G
 ****


