%nproc=1
%NoSave
%Mem=1900MB
#P OB98/GEN NMR

erre ene a

0 1
  C     -425.706     292.844    -182.632
  O     -425.486     291.946    -183.715
  P     -425.469     292.557    -185.195
  C     -424.517     290.277    -185.980
  O     -425.483     291.293    -186.184
  C     -424.762     289.095    -186.911
  O     -424.910     289.555    -188.269
  C     -423.649     288.064    -186.939
  O     -423.725     287.149    -185.864
  C     -423.952     287.349    -188.257
  O     -425.023     286.417    -188.064
  C     -424.407     288.509    -189.144
  N     -422.087     288.136    -193.686
  C     -423.073     287.411    -193.121
  N     -423.626     287.560    -191.905
  C     -423.043     288.572    -191.231
  C     -422.000     289.371    -191.676
  C     -421.526     289.143    -192.965
  N     -420.542     289.905    -193.556
  N     -421.673     290.299    -190.704
  C     -422.492     290.067    -189.705
  N     -423.348     289.035    -189.979
  O     -423.982     293.125    -185.338
  O     -426.501     293.609    -185.456
  H     -424.879     285.677    -188.686
  H     -423.954     293.823    -186.022
  H     -423.468     286.601    -193.722
  H     -422.509     290.621    -188.776
  H     -425.240     288.217    -189.808
  H     -423.103     286.785    -188.638
  H     -422.658     288.544    -187.008
  H     -425.716     288.618    -186.612
  H     -424.558     289.938    -184.942
  H     -420.382     289.789    -194.547
  H     -420.265     290.768    -193.103
  H     -423.512     290.702    -186.158
  P     -422.323     286.638    -185.249
  C     -423.449     286.677    -182.898
  O     -422.708     285.942    -183.856
  O     -421.602     287.999    -184.819
  O     -421.502     285.833    -186.192
  H     -420.631     287.879    -184.811
  H     -423.881     285.986    -182.183
  H     -424.255     287.243    -183.373
  H     -422.774     287.373    -182.371
  H     -425.692     292.301    -181.710
  H     -426.657     293.320    -182.751
  H     -424.935     293.586    -182.621

 3  4  5  6  7  8  9  10  11  12  22  25  29  30  31  32 0
 6-311+G(2d,p)
 ****
 33  36  37 0
 6-311+G(2d,p)
 ****
 1  2  13  14  15  16  17  18  19  20  21  23  24  26 0
 3-21G
 ****
 27  28  34  35  38  39  40  41  42  43  44  45  46  47  48 0
 3-21G
 ****


