%nproc=1
%NoSave
%Mem=1900MB
#P OB98/GEN NMR

erre ene a

0 1
  C     -287.356    1322.421    -411.194
  O     -287.946    1321.482    -410.317
  H     -286.309    1322.156    -411.331
  H     -287.416    1323.425    -410.774
  H     -287.859    1322.385    -412.164
  P     -289.493    1321.711    -409.956
  C     -290.027    1319.737    -411.536
  O     -290.296    1321.096    -411.202
  C     -291.153    1318.827    -411.043
  O     -292.394    1319.196    -411.647
  C     -290.939    1317.350    -411.334
  O     -290.106    1316.758    -410.362
  C     -292.368    1316.831    -411.240
  O     -292.713    1316.629    -409.856
  C     -293.192    1317.991    -411.823
  N     -296.718    1316.273    -415.130
  C     -296.574    1316.087    -413.797
  N     -295.581    1316.528    -412.991
  C     -294.682    1317.242    -413.686
  C     -294.691    1317.512    -415.048
  C     -295.776    1316.999    -415.788
  N     -295.926    1317.186    -417.155
  N     -293.601    1318.266    -415.416
  C     -292.975    1318.503    -414.284
  N     -293.566    1317.868    -413.216
  O     -289.865    1323.100    -409.556
  O     -289.707    1320.606    -408.810
  H     -292.086    1315.968    -409.501
  H     -289.244    1319.777    -409.054
  H     -297.353    1315.512    -413.314
  H     -292.090    1319.130    -414.179
  H     -294.123    1318.148    -411.260
  H     -292.511    1315.878    -411.743
  H     -290.567    1317.193    -412.356
  H     -291.260    1319.000    -409.955
  H     -289.070    1319.418    -411.111
  H     -296.617    1316.625    -417.621
  H     -295.160    1317.611    -417.649
  H     -289.944    1319.678    -412.630
  P     -288.905    1315.777    -410.768
  C     -287.153    1317.560    -410.166
  O     -287.709    1316.754    -411.205
  O     -289.277    1314.730    -411.760
  O     -288.398    1315.164    -409.384
  H     -287.856    1314.371    -409.544
  H     -286.369    1318.168    -410.567
  H     -286.757    1316.929    -409.398
  H     -287.916    1318.187    -409.754

 6  7  8  9  10  11  12  13  14  15  25  28  32  33  34  35 0
 6-311+G(2d,p)
 ****
 36  39  40 0
 6-311+G(2d,p)
 ****
 1  2  3  4  5  16  17  18  19  20  21  22  23  24 0
 3-21G
 ****
 26  27  29  30  31  37  38  41  42  43  44  45  46  47 0
 3-21G
 ****
 48 0
 3-21G
 ****


