%nproc=1
%NoSave
%Mem=1900MB
#P OB98/GEN NMR

erre ene a

0 1
  C     -513.725     530.037    1036.837
  O     -513.984     528.764    1037.390
  H     -514.505     530.265    1036.105
  H     -512.759     530.037    1036.330
  H     -513.744     530.811    1037.608
  P     -513.094     528.266    1038.625
  C     -514.456     527.866    1040.783
  O     -513.802     528.817    1039.958
  C     -515.972     528.111    1040.802
  O     -516.483     527.932    1039.451
  C     -516.754     527.149    1041.713
  O     -517.910     527.863    1042.182
  C     -517.140     526.067    1040.722
  O     -518.104     525.176    1041.236
  C     -517.540     526.948    1039.530
  N     -517.690     526.245    1038.261
  C     -518.771     525.369    1038.134
  O     -519.599     525.148    1039.015
  N     -518.872     524.725    1036.931
  C     -518.036     524.885    1035.862
  O     -518.198     524.297    1034.797
  C     -516.915     525.807    1036.062
  C     -516.800     526.444    1037.229
  O     -511.632     528.545    1038.529
  O     -513.389     526.693    1038.693
  H     -512.646     526.203    1038.299
  H     -518.918     525.680    1041.456
  H     -519.647     524.092    1036.821
  H     -516.226     525.946    1035.233
  H     -515.989     527.143    1037.397
  H     -518.466     527.487    1039.755
  H     -516.267     525.449    1040.484
  H     -516.171     526.795    1042.570
  H     -516.155     529.159    1041.074
  H     -514.055     527.964    1041.799
  H     -514.244     526.857    1040.411
  P     -518.000     528.546    1043.628
  C     -519.313     530.728    1043.133
  O     -518.048     530.142    1043.427
  O     -516.940     528.098    1044.579
  O     -519.453     528.186    1044.180
  H     -519.450     528.193    1045.156
  H     -519.199     531.786    1043.025
  H     -519.996     530.522    1043.931
  H     -519.694     530.316    1042.222

 6  7  8  9  10  11  12  13  14  15  16  27  31  32  33  34  35 0
 6-311+G(2d,p)
 ****
 36  37 0
 6-311+G(2d,p)
 ****
 1  2  3  4  5  17  18  19  20  21  22  23  24  25 0
 3-21G
 ****
 26  28  29  30  38  39  40  41  42  43  44  45 0
 3-21G
 ****


