%nproc=1
%NoSave
%Mem=1900MB
#P OB98/GEN NMR

erre ene a

0 1
  C        5.052     -45.546     -30.482
  O        5.948     -45.131     -29.472
  H        5.598     -46.153     -31.208
  H        4.646     -44.670     -30.993
  H        4.239     -46.144     -30.061
  P        5.310     -44.493     -28.147
  C        6.470     -42.270     -28.799
  O        6.198     -43.208     -27.769
  C        7.914     -41.778     -28.703
  O        8.058     -40.990     -27.493
  C        8.950     -42.908     -28.649
  O       10.099     -42.518     -29.405
  C        9.310     -42.988     -27.176
  O       10.609     -43.533     -26.958
  C        9.168     -41.531     -26.752
  N       11.361     -40.405     -22.358
  C       11.854     -40.333     -23.646
  N       13.126     -39.903     -23.785
  N       11.160     -40.655     -24.706
  C        9.891     -41.033     -24.418
  C        9.288     -41.150     -23.188
  C       10.077     -40.819     -22.021
  O        9.704     -40.884     -20.855
  N        7.997     -41.599     -23.309
  C        7.822     -41.752     -24.609
  N        8.940     -41.415     -25.322
  O        5.688     -45.557     -27.013
  O        3.839     -44.250     -28.197
  H       10.678     -43.756     -26.005
  H        4.875     -45.959     -26.654
  H       11.943     -40.158     -21.576
  H        6.917     -42.109     -25.081
  H       10.060     -40.938     -26.987
  H        8.583     -43.621     -26.653
  H       13.701     -39.593     -23.018
  H        8.569     -43.857     -29.030
  H       13.498     -39.806     -24.723
  H        8.111     -41.105     -29.545
  H        5.789     -41.419     -28.693
  H        6.302     -42.742     -29.773
  P        9.975     -42.583     -31.004
  C       10.663     -44.996     -31.645
  O       11.057     -43.635     -31.552
  O       10.555     -41.167     -31.472
  O        8.580     -42.790     -31.493
  H        9.828     -40.599     -31.788
  H       11.478     -45.578     -32.022
  H        9.827     -45.081     -32.307
  H       10.387     -45.355     -30.675

 6  7  8  9  10  11  12  13  14  15  26  29  33  34 0
 6-311+G(2d,p)
 ****
 36  38  39  40  41 0
 6-311+G(2d,p)
 ****
 1  2  3  4  5  16  17  18  19  20  21  22  23  24  25 0
 3-21G
 ****
 27  28  30  31  32  35  37  42  43  44  45  46  47 0
 3-21G
 ****
 48  49 0
 3-21G
 ****


