%nproc=1
%NoSave
%Mem=1900MB
#P OB98/GEN NMR

erre ene a

0 1
  C      827.509     301.486     267.101
  O      828.170     301.881     265.910
  P      829.189     303.123     265.881
  C      827.531     305.036     266.439
  O      828.292     304.399     265.442
  C      826.138     305.390     265.896
  O      825.340     305.934     266.985
  C      826.147     306.416     264.765
  O      825.081     306.067     263.863
  C      825.843     307.716     265.482
  O      825.309     308.720     264.610
  C      824.860     307.223     266.558
  N      824.764     308.145     267.690
  C      824.081     309.359     267.483
  O      823.609     309.638     266.385
  N      823.957     310.220     268.544
  C      824.528     309.957     269.682
  N      824.337     310.807     270.719
  C      825.361     308.737     269.901
  C      825.402     307.886     268.888
  O      830.417     302.920     265.079
  O      829.457     303.445     267.427
  H      825.056     309.487     265.154
  H      830.182     302.885     267.814
  H      825.844     308.571     270.851
  H      825.956     306.958     268.956
  H      823.866     307.061     266.131
  H      826.756     308.120     265.936
  H      827.089     306.442     264.204
  H      825.653     304.458     265.577
  H      823.630     311.529     270.577
  H      828.038     305.967     266.721
  H      824.466     310.518     271.673
  H      827.457     304.397     267.321
  P      825.413     305.941     262.299
  C      825.010     308.483     261.902
  O      824.684     307.154     261.533
  O      824.494     304.675     261.882
  O      826.842     305.677     261.954
  H      824.889     304.263     261.092
  H      824.422     309.170     261.282
  H      826.068     308.662     261.739
  H      824.751     308.655     262.960
  H      826.881     300.644     266.898
  H      826.912     302.297     267.463
  H      828.235     301.220     267.840

 3  4  5  6  7  8  9  10  11  12  13  23  27  28  29  30  32 0
 6-311+G(2d,p)
 ****
 34  35 0
 6-311+G(2d,p)
 ****
 1  2  14  15  16  17  18  19  20  21  22  24  25  26 0
 3-21G
 ****
 31  33  36  37  38  39  40  41  42  43  44  45  46 0
 3-21G
 ****


