%nproc=1
%NoSave
%Mem=1900MB
#P OB98/GEN NMR

erre ene a

0 1
  C       48.145    -124.851    -304.521
  O       47.544    -125.262    -303.287
  P       47.809    -124.364    -301.980
  C       45.665    -122.905    -301.813
  O       46.401    -124.008    -301.305
  C       44.987    -122.140    -300.671
  O       44.370    -120.922    -301.129
  C       43.867    -122.924    -299.994
  O       44.377    -123.842    -299.030
  C       43.101    -121.807    -299.302
  O       43.770    -121.434    -298.081
  C       43.197    -120.669    -300.324
  N       40.078    -117.470    -302.830
  C       41.122    -117.243    -302.004
  N       41.892    -118.144    -301.363
  C       41.501    -119.396    -301.651
  C       40.446    -119.779    -302.472
  C       39.718    -118.746    -303.085
  N       38.653    -118.980    -303.924
  N       40.338    -121.156    -302.525
  C       41.315    -121.598    -301.756
  N       42.040    -120.574    -301.201
  O       48.288    -122.967    -302.600
  O       48.837    -124.930    -301.059
  H       44.694    -121.226    -298.311
  H       48.951    -122.555    -302.017
  H       41.377    -116.203    -301.838
  H       41.538    -122.639    -301.578
  H       43.324    -119.683    -299.852
  H       42.082    -122.101    -299.028
  H       43.228    -123.419    -300.735
  H       45.755    -121.887    -299.927
  H       44.915    -123.248    -302.532
  H       38.194    -118.191    -304.345
  H       38.393    -119.936    -304.136
  H       46.344    -122.246    -302.369
  P       43.686    -125.286    -298.957
  C       44.864    -126.347    -301.014
  O       44.739    -126.306    -299.605
  O       42.515    -125.184    -300.045
  O       43.166    -125.648    -297.605
  H       41.765    -125.751    -299.786
  H       45.805    -126.847    -301.261
  H       44.885    -125.336    -301.438
  H       44.039    -126.917    -301.442
  H       47.880    -125.542    -305.294
  H       49.209    -124.830    -304.410
  H       47.794    -123.874    -304.780

 3  4  5  6  7  8  9  10  11  12  22  25  29  30  31  32 0
 6-311+G(2d,p)
 ****
 33  36  37 0
 6-311+G(2d,p)
 ****
 1  2  13  14  15  16  17  18  19  20  21  23  24  26 0
 3-21G
 ****
 27  28  34  35  38  39  40  41  42  43  44  45  46  47  48 0
 3-21G
 ****


