%nproc=1
%NoSave
%Mem=1900MB
#P OB98/GEN NMR

erre ene a

0 1
  C      288.328     329.083     201.982
  O      288.549     329.747     200.734
  P      287.900     329.069     199.432
  C      287.545     331.490     198.554
  O      287.912     330.151     198.249
  C      288.470     332.471     197.838
  O      289.830     332.364     198.310
  C      288.552     332.233     196.333
  O      287.381     332.696     195.679
  C      289.821     333.008     195.990
  O      289.541     334.413     195.902
  C      290.707     332.728     197.213
  N      295.691     331.612     196.905
  C      295.036     332.774     197.133
  N      293.706     332.990     197.198
  C      293.031     331.843     197.011
  C      293.557     330.585     196.771
  C      294.956     330.488     196.719
  N      295.623     329.310     196.469
  N      292.551     329.652     196.628
  C      291.433     330.343     196.755
  N      291.673     331.667     196.998
  O      286.353     328.940     199.817
  O      288.496     327.744     199.086
  H      289.204     334.589     194.999
  H      286.124     328.007     199.975
  H      295.666     333.646     197.283
  H      290.435     329.928     196.677
  H      291.270     333.615     197.529
  H      290.265     332.699     195.038
  H      288.696     331.163     196.125
  H      288.109     333.487     198.035
  H      287.595     331.658     199.635
  H      296.627     329.344     196.372
  H      295.088     328.483     196.242
  H      286.501     331.644     198.260
  P      286.694     331.728     194.600
  C      284.225     332.216     195.096
  O      285.323     332.479     194.239
  O      286.208     330.516     195.513
  O      287.561     331.366     193.441
  H      285.768     330.830     196.330
  H      283.369     332.812     194.760
  H      284.468     332.497     196.122
  H      283.958     331.157     195.047
  H      288.808     329.630     202.767
  H      288.734     328.094     201.937
  H      287.277     329.029     202.176

 3  4  5  6  7  8  9  10  11  12  22  25  29  30  31  32 0
 6-311+G(2d,p)
 ****
 33  36  37 0
 6-311+G(2d,p)
 ****
 1  2  13  14  15  16  17  18  19  20  21  23  24  26 0
 3-21G
 ****
 27  28  34  35  38  39  40  41  42  43  44  45  46  47  48 0
 3-21G
 ****


