%nproc=1
%NoSave
%Mem=1900MB
#P OB98/GEN NMR

erre ene a

0 1
  C       29.953     -99.145     -57.396
  O       29.989     -97.874     -58.010
  H       30.341     -99.883     -58.102
  H       28.927     -99.415     -57.136
  H       30.581     -99.154     -56.501
  P       29.413     -96.613     -57.206
  C       31.223     -95.030     -58.144
  O       29.830     -95.305     -58.036
  C       31.878     -95.998     -59.138
  O       31.407     -95.653     -60.464
  C       33.410     -95.903     -59.128
  O       34.043     -97.166     -58.947
  C       33.717     -95.123     -60.401
  O       34.998     -95.369     -60.941
  C       32.550     -95.486     -61.323
  N       32.277     -94.486     -62.353
  C       32.603     -94.815     -63.666
  O       33.089     -95.884     -64.027
  N       32.341     -93.846     -64.601
  C       31.814     -92.613     -64.357
  O       31.599     -91.789     -65.237
  C       31.518     -92.314     -62.947
  C       31.760     -93.248     -62.025
  O       29.752     -96.565     -55.754
  O       27.831     -96.695     -57.438
  H       35.015     -96.307     -61.228
  H       27.399     -97.014     -56.622
  H       32.558     -94.078     -65.557
  H       31.111     -91.339     -62.717
  H       31.551     -93.061     -60.977
  H       32.739     -96.435     -61.827
  H       33.667     -94.052     -60.170
  H       33.758     -95.322     -58.265
  H       31.533     -97.014     -58.919
  H       31.667     -95.148     -57.151
  H       31.370     -93.998     -58.481
  P       34.262     -97.890     -57.543
  C       33.600    -100.376     -58.091
  O       34.619     -99.425     -57.812
  O       33.236     -97.611     -56.498
  O       35.663     -97.287     -57.018
  H       35.602     -97.263     -56.042
  H       34.042    -101.339     -58.240
  H       33.073    -100.085     -58.975
  H       32.918    -100.420     -57.268

 6  7  8  9  10  11  12  13  14  15  16  26  31  32  33  34  35 0
 6-311+G(2d,p)
 ****
 36  37 0
 6-311+G(2d,p)
 ****
 1  2  3  4  5  17  18  19  20  21  22  23  24  25 0
 3-21G
 ****
 27  28  29  30  38  39  40  41  42  43  44  45 0
 3-21G
 ****


