%nproc=1
%NoSave
%Mem=1900MB
#P OB98/GEN NMR

erre ene a

0 1
  C     -190.124     -18.246    -273.060
  O     -188.735     -18.240    -273.329
  H     -190.665     -18.190    -274.009
  H     -190.394     -17.382    -272.445
  H     -190.406     -19.173    -272.546
  P     -187.761     -18.293    -272.053
  C     -186.162     -16.295    -271.626
  O     -187.503     -16.766    -271.623
  C     -185.849     -15.588    -272.941
  O     -186.970     -14.780    -273.369
  C     -184.641     -14.660    -272.887
  O     -183.428     -15.379    -273.047
  C     -184.928     -13.726    -274.050
  O     -184.548     -14.318    -275.312
  C     -186.451     -13.560    -273.964
  N     -188.371      -8.888    -274.236
  C     -188.117      -9.813    -275.234
  N     -188.366      -9.404    -276.503
  N     -187.660     -11.016    -275.016
  C     -187.426     -11.268    -273.705
  C     -187.650     -10.446    -272.623
  C     -188.188      -9.127    -272.881
  O     -188.497      -8.291    -272.030
  N     -187.302     -11.069    -271.449
  C     -186.839     -12.244    -271.821
  N     -186.875     -12.408    -273.184
  O     -186.353     -18.742    -272.678
  O     -188.191     -19.210    -270.956
  H     -183.635     -14.642    -275.253
  H     -185.859     -19.257    -272.013
  H     -188.742      -7.986    -274.466
  H     -186.470     -13.008    -271.151
  H     -186.914     -13.459    -274.955
  H     -184.372     -12.785    -273.969
  H     -188.396      -8.423    -276.751
  H     -184.636     -14.081    -271.951
  H     -188.162     -10.068    -277.241
  H     -185.698     -16.363    -273.707
  H     -185.484     -17.146    -271.505
  H     -186.022     -15.604    -270.784
  P     -182.078     -14.698    -272.508
  C     -180.236     -14.133    -274.259
  O     -181.507     -13.806    -273.717
  O     -181.050     -15.927    -272.445
  O     -182.210     -14.006    -271.193
  H     -180.284     -15.691    -271.883
  H     -179.999     -13.452    -275.050
  H     -180.258     -15.131    -274.643
  H     -179.493     -14.062    -273.493

 6  7  8  9  10  11  12  13  14  15  26  29  33  34 0
 6-311+G(2d,p)
 ****
 36  38  39  40  41 0
 6-311+G(2d,p)
 ****
 1  2  3  4  5  16  17  18  19  20  21  22  23  24  25 0
 3-21G
 ****
 27  28  30  31  32  35  37  42  43  44  45  46  47 0
 3-21G
 ****
 48  49 0
 3-21G
 ****


