%nproc=1
%NoSave
%Mem=1900MB
#P OB98/GEN NMR

erre ene a

0 1
  C     -891.170     695.085    -337.401
  O     -891.510     695.822    -336.243
  H     -891.430     695.679    -338.279
  H     -891.730     694.146    -337.435
  H     -890.090     694.877    -337.427
  P     -891.230     695.175    -334.809
  C     -891.670     697.508    -333.768
  O     -892.020     696.125    -333.784
  C     -892.830     698.347    -333.236
  O     -893.870     698.508    -334.228
  C     -893.550     697.739    -332.023
  O     -892.790     697.842    -330.804
  C     -894.790     698.614    -331.993
  O     -894.450     699.917    -331.463
  C     -895.120     698.686    -333.504
  N     -896.110     697.683    -333.915
  C     -897.450     698.072    -333.882
  O     -897.780     699.195    -333.527
  N     -898.420     697.147    -334.255
  C     -898.060     695.937    -334.582
  N     -899.050     695.074    -334.914
  C     -896.660     695.477    -334.599
  C     -895.750     696.393    -334.259
  O     -889.800     694.907    -334.468
  O     -892.160     693.860    -334.779
  H     -894.140     699.766    -330.546
  H     -892.020     693.400    -333.910
  H     -896.410     694.458    -334.861
  H     -894.680     696.136    -334.244
  H     -895.510     699.691    -333.771
  H     -895.590     698.204    -331.380
  H     -893.840     696.702    -332.214
  H     -892.430     699.352    -333.009
  H     -900.000     695.402    -334.895
  H     -891.420     697.804    -334.795
  H     -898.880     694.088    -335.091
  H     -890.790     697.677    -333.139
  P     -892.190     696.457    -330.231
  C     -891.020     697.813    -328.332
  O     -891.860     696.739    -328.690
  O     -890.750     696.388    -330.930
  O     -893.040     695.236    -330.490
  H     -890.800     695.783    -331.714
  H     -890.916     697.845    -327.268
  H     -891.449     698.731    -328.676
  H     -890.058     697.678    -328.781

 6  7  8  9  10  11  12  13  14  15  16  26  30  31  32  33  35 0
 6-311+G(2d,p)
 ****
 37  38 0
 6-311+G(2d,p)
 ****
 1  2  3  4  5  17  18  19  20  21  22  23  24  25 0
 3-21G
 ****
 27  28  29  34  36  39  40  41  42  43  44  45  46 0
 3-21G
 ****


