%nproc=1
%NoSave
%Mem=1900MB
#P OB98/GEN NMR

erre ene a

0 1
  C      248.283     181.912    -235.973
  O      247.672     180.714    -235.538
  H      248.886     182.331    -235.165
  H      248.940     181.684    -236.818
  H      247.533     182.638    -236.296
  P      246.447     180.848    -234.511
  C      244.610     181.833    -236.058
  O      245.105     180.687    -235.384
  C      243.084     181.806    -236.105
  O      242.600     183.174    -236.230
  C      242.499     180.993    -237.272
  O      241.337     180.302    -236.806
  C      242.074     182.063    -238.261
  O      241.029     181.627    -239.124
  C      241.664     183.193    -237.323
  N      239.203     186.016    -240.762
  C      238.834     184.923    -240.062
  N      239.536     184.262    -239.119
  C      240.705     184.878    -238.877
  C      241.215     186.000    -239.502
  C      240.411     186.574    -240.506
  N      240.806     187.647    -241.271
  N      242.473     186.296    -239.015
  C      242.728     185.351    -238.132
  N      241.690     184.470    -238.015
  O      246.472     182.409    -234.148
  O      246.529     179.990    -233.295
  H      241.279     180.767    -239.513
  H      247.074     182.560    -233.397
  H      237.853     184.521    -240.296
  H      243.649     185.240    -237.577
  H      240.654     183.058    -236.914
  H      242.933     182.354    -238.878
  H      243.206     180.278    -237.707
  H      242.714     181.424    -235.145
  H      244.995     181.839    -237.084
  H      240.210     187.918    -242.038
  H      241.747     188.000    -241.169
  H      244.960     182.735    -235.544
  P      241.299     178.710    -236.995
  C      242.216     178.142    -234.627
  O      241.143     178.028    -235.554
  O      242.802     178.355    -237.415
  O      240.317     178.247    -238.023
  H      242.812     177.595    -238.023
  H      241.958     177.637    -233.719
  H      242.401     179.176    -234.420
  H      243.096     177.699    -235.044

 6  7  8  9  10  11  12  13  14  15  25  28  32  33  34  35 0
 6-311+G(2d,p)
 ****
 36  39  40 0
 6-311+G(2d,p)
 ****
 1  2  3  4  5  16  17  18  19  20  21  22  23  24 0
 3-21G
 ****
 26  27  29  30  31  37  38  41  42  43  44  45  46  47 0
 3-21G
 ****
 48 0
 3-21G
 ****


