%nproc=1
%NoSave
%Mem=1900MB
#P OB98/GEN NMR

erre ene a

0 1
  C     1060.441     755.197    -895.600
  O     1059.921     756.329    -896.310
  P     1058.951     756.079    -897.560
  C     1056.679     756.818    -896.560
  O     1057.475     755.748    -897.040
  C     1055.379     756.283    -895.920
  O     1055.693     755.438    -894.780
  C     1054.489     757.391    -895.350
  O     1053.865     758.221    -896.300
  C     1053.606     756.619    -894.390
  O     1052.503     755.992    -895.070
  C     1054.578     755.550    -893.850
  N     1055.053     755.838    -892.490
  C     1054.274     755.395    -891.440
  O     1053.191     754.812    -891.610
  N     1054.723     755.673    -890.180
  C     1055.829     756.378    -889.870
  O     1056.193     756.623    -888.740
  C     1056.627     756.832    -891.040
  C     1056.221     756.563    -892.270
  O     1059.479     755.189    -898.640
  O     1058.752     757.587    -898.150
  H     1052.051     755.425    -894.450
  H     1058.791     757.527    -899.110
  H     1054.139     755.349    -889.420
  H     1057.541     757.415    -890.830
  H     1056.777     756.896    -893.140
  H     1054.094     754.554    -893.820
  H     1053.189     757.278    -893.630
  H     1055.130     758.054    -894.740
  H     1054.870     755.671    -896.660
  H     1056.448     757.490    -897.380
  H     1057.264     757.416    -895.840
  P     1054.570     759.564    -896.920
  C     1054.869     758.505    -899.260
  O     1055.486     759.105    -898.160
  O     1055.136     760.544    -895.950
  O     1053.313     760.248    -897.670
  H     1053.434     761.197    -897.630
  H     1055.656     758.268    -900.000
  H     1054.165     759.198    -899.740
  H     1054.345     757.582    -898.990
  H     1061.066     755.534    -894.800
  H     1061.014     754.589    -896.269
  H     1059.631     754.623    -895.202

 3  4  5  6  7  8  9  10  11  12  13  23  28  29  30  31  32 0
 6-311+G(2d,p)
 ****
 33  34 0
 6-311+G(2d,p)
 ****
 1  2  14  15  16  17  18  19  20  21  22  24  25  26  27 0
 3-21G
 ****
 35  36  37  38  39  40  41  42  43  44  45 0
 3-21G
 ****


