%nproc=1
%NoSave
%Mem=1900MB
#P OB98/GEN NMR

erre ene a

0 1
  C     -209.748      96.689     183.246
  O     -210.369      95.472     182.891
  P     -211.872      95.104     183.291
  C     -211.101      92.651     182.910
  O     -211.926      93.538     183.658
  C     -210.641      91.431     183.724
  O     -209.808      91.869     184.818
  C     -211.849      90.728     184.351
  O     -212.605      89.799     183.600
  C     -211.351      90.212     185.697
  O     -210.989      88.831     185.654
  C     -210.123      91.079     185.980
  N     -211.397      91.485     190.871
  C     -211.084      90.354     190.142
  N     -211.331      89.173     190.754
  N     -210.603      90.382     188.929
  C     -210.503      91.632     188.418
  C     -210.770      92.828     189.042
  C     -211.262      92.784     190.401
  O     -211.631      93.762     191.048
  N     -210.624      93.894     188.191
  C     -210.313      93.341     187.035
  N     -210.266      91.971     187.115
  O     -212.956      95.678     182.437
  O     -211.989      95.796     184.745
  H     -210.882      88.520     186.571
  H     -212.907      96.114     184.847
  H     -211.841      91.398     191.776
  H     -210.144      93.885     186.112
  H     -209.244      90.451     186.175
  H     -212.134      90.305     186.459
  H     -211.835      89.110     191.630
  H     -212.572      91.514     184.604
  H     -211.276      88.326     190.196
  H     -210.012      90.769     183.120
  H     -210.241      93.226     182.553
  H     -211.647      92.305     182.025
  P     -214.169      89.507     183.747
  C     -213.813      87.100     182.961
  O     -214.374      87.934     183.958
  O     -214.759      89.748     182.275
  O     -214.884      90.373     184.737
  H     -215.713      89.939     182.328
  H     -214.259      86.104     183.034
  H     -212.731      87.017     183.119
  H     -214.002      87.502     181.962
  H     -208.748      96.703     182.867
  H     -209.727      96.781     184.312
  H     -210.299      97.506     182.828

 3  4  5  6  7  8  9  10  11  12  23  26  30  31 0
 6-311+G(2d,p)
 ****
 33  35  36  37  38 0
 6-311+G(2d,p)
 ****
 1  2  13  14  15  16  17  18  19  20  21  22  24  25 0
 3-21G
 ****
 27  28  29  32  34  39  40  41  42  43  44  45  46  47  48  49 0
 3-21G
 ****


