%nproc=1
%NoSave
%Mem=1900MB
#P OB98/GEN NMR

erre ene a

0 1
  C      121.776    -103.961    -620.096
  O      120.573    -104.130    -620.817
  H      121.587    -103.369    -619.198
  H      122.149    -104.944    -619.795
  H      122.534    -103.469    -620.716
  P      120.007    -102.856    -621.610
  C      121.028    -103.670    -623.854
  O      120.978    -102.642    -622.872
  C      122.113    -103.368    -624.887
  O      123.266    -102.799    -624.201
  C      122.599    -104.599    -625.674
  O      122.830    -104.205    -627.030
  C      123.926    -104.927    -625.023
  O      124.808    -105.625    -625.892
  C      124.424    -103.537    -624.633
  N      128.826    -105.729    -623.342
  C      128.197    -105.598    -624.532
  N      127.046    -104.948    -624.796
  C      126.581    -104.336    -623.692
  C      127.111    -104.376    -622.416
  C      128.286    -105.129    -622.259
  N      128.897    -105.326    -621.041
  N      126.310    -103.670    -621.541
  C      125.299    -103.241    -622.270
  N      125.415    -103.622    -623.578
  O      120.391    -101.644    -620.634
  O      118.547    -102.883    -621.919
  H      125.606    -105.883    -625.393
  H      119.677    -101.514    -619.981
  H      128.669    -106.090    -625.375
  H      124.449    -102.682    -621.897
  H      124.878    -103.000    -625.476
  H      123.756    -105.549    -624.131
  H      121.898    -105.442    -625.648
  H      121.736    -102.597    -625.570
  H      120.061    -103.728    -624.361
  H      129.672    -105.970    -621.000
  H      128.450    -104.977    -620.203
  H      121.228    -104.628    -623.363
  P      121.552    -104.099    -627.994
  C      121.511    -101.493    -628.046
  O      120.823    -102.700    -627.724
  O      120.536    -105.171    -627.383
  O      121.855    -104.386    -629.431
  H      119.997    -105.571    -628.088
  H      120.891    -100.654    -627.807
  H      121.740    -101.481    -629.091
  H      122.418    -101.438    -627.481

 6  7  8  9  10  11  12  13  14  15  25  28  32  33  34  35 0
 6-311+G(2d,p)
 ****
 36  39  40 0
 6-311+G(2d,p)
 ****
 1  2  3  4  5  16  17  18  19  20  21  22  23  24 0
 3-21G
 ****
 26  27  29  30  31  37  38  41  42  43  44  45  46  47 0
 3-21G
 ****
 48 0
 3-21G
 ****


