%nproc=1
%NoSave
%Mem=1900MB
#P OB98/GEN NMR

erre ene a

0 1
  C       72.899      68.549    -108.300
  O       74.311      68.607    -108.376
  P       75.202      67.614    -107.491
  C       74.815      68.839    -105.227
  O       75.728      68.455    -106.232
  C       75.380      69.979    -104.371
  O       74.358      70.372    -103.423
  C       76.602      69.608    -103.536
  O       77.261      70.811    -103.134
  C       75.966      68.951    -102.331
  O       76.842      68.920    -101.208
  C       74.671      69.781    -102.140
  N       73.553      68.940    -101.677
  C       73.600      68.502    -100.357
  O       74.479      68.847     -99.568
  N       72.652      67.584     -99.997
  C       71.717      67.048    -100.833
  O       71.090      66.024    -100.589
  C       71.566      67.722    -102.132
  C       72.495      68.608    -102.501
  O       76.510      67.415    -108.390
  O       74.553      66.315    -107.157
  H       76.321      68.567    -100.450
  H       76.438      66.594    -108.913
  H       72.775      67.159     -99.086
  H       70.741      67.428    -102.766
  H       72.439      69.083    -103.477
  H       74.816      70.585    -101.408
  H       75.713      67.913    -102.581
  H       77.306      68.940    -104.041
  H       75.598      70.842    -105.011
  H       74.576      67.971    -104.606
  H       73.871      69.167    -105.677
  P       78.629      71.200    -103.874
  C       79.669      69.449    -102.310
  O       79.816      70.722    -102.907
  O       78.729      72.603    -104.369
  O       78.704      70.139    -105.074
  H       79.323      70.458    -105.757
  H       80.661      69.026    -102.134
  H       79.101      68.769    -102.950
  H       79.155      69.559    -101.351
  H       72.476      69.281    -108.956
  H       72.587      68.748    -107.296
  H       72.566      67.575    -108.591

 3  4  5  6  7  8  9  10  11  12  13  23  28  29  30  31  32 0
 6-311+G(2d,p)
 ****
 33  34 0
 6-311+G(2d,p)
 ****
 1  2  14  15  16  17  18  19  20  21  22  24  25  26  27 0
 3-21G
 ****
 35  36  37  38  39  40  41  42  43  44  45 0
 3-21G
 ****


