%nproc=1
%NoSave
%Mem=1900MB
#P OB98/GEN NMR

erre ene a

0 1
  C      -74.884      80.606     -30.492
  O      -75.962      80.844     -31.392
  P      -76.910      82.102     -31.097
  C      -75.522      84.133     -32.008
  O      -76.591      83.224     -32.196
  C      -75.085      84.756     -33.347
  O      -74.575      83.699     -34.201
  C      -76.197      85.423     -34.149
  O      -75.606      86.300     -35.111
  C      -76.818      84.240     -34.859
  O      -77.604      84.649     -35.975
  C      -75.585      83.370     -35.191
  N      -75.862      81.917     -35.169
  C      -76.649      81.377     -36.183
  O      -77.134      82.037     -37.102
  N      -76.908      80.036     -36.096
  C      -76.434      79.190     -35.141
  O      -76.767      78.014     -35.060
  C      -75.496      79.782     -34.178
  C      -75.266      81.095     -34.227
  O      -76.322      82.704     -29.738
  O      -78.354      81.751     -30.978
  H      -77.851      83.829     -36.460
  H      -76.910      82.487     -28.991
  H      -77.533      79.644     -36.786
  H      -75.045      79.127     -33.442
  H      -74.590      81.552     -33.509
  H      -75.188      83.609     -36.186
  H      -77.480      83.704     -34.173
  H      -76.928      85.969     -33.547
  H      -74.264      85.458     -33.166
  H      -74.679      83.623     -31.535
  H      -75.832      84.929     -31.322
  P      -75.620      87.873     -34.804
  C      -74.814      88.270     -32.395
  O      -74.437      88.138     -33.753
  O      -76.943      88.460     -34.448
  O      -75.032      88.507     -36.155
  H      -75.267      89.451     -36.205
  H      -73.988      87.930     -31.765
  H      -75.704      87.678     -32.166
  H      -75.015      89.324     -32.180
  H      -74.339      79.741     -30.809
  H      -75.271      80.443     -29.508
  H      -74.232      81.455     -30.484

 3  4  5  6  7  8  9  10  11  12  13  23  28  29  30  31  32 0
 6-311+G(2d,p)
 ****
 33  34 0
 6-311+G(2d,p)
 ****
 1  2  14  15  16  17  18  19  20  21  22  24  25  26  27 0
 3-21G
 ****
 35  36  37  38  39  40  41  42  43  44  45 0
 3-21G
 ****


