%nproc=1
%NoSave
%Mem=1900MB
#P OB98/GEN NMR

erre ene a

0 1
  C     -117.422    -897.590    -111.141
  O     -116.107    -897.250    -110.728
  P     -115.045    -898.380    -110.353
  C     -112.953    -897.640    -111.760
  O     -114.033    -898.540    -111.566
  C     -112.363    -897.840    -113.161
  O     -113.347    -897.590    -114.165
  C     -111.169    -896.930    -113.418
  O     -109.951    -897.570    -113.092
  C     -111.328    -896.600    -114.878
  O     -110.795    -897.650    -115.695
  C     -112.864    -896.520    -115.040
  N     -113.545    -895.280    -114.646
  C     -113.537    -894.190    -115.530
  O     -113.018    -894.220    -116.647
  N     -114.152    -893.050    -115.076
  C     -114.804    -892.920    -113.870
  O     -115.126    -891.830    -113.367
  C     -115.002    -894.160    -113.125
  C     -114.354    -895.260    -113.515
  O     -115.919    -899.740    -110.422
  O     -114.367    -898.220    -109.027
  H     -111.027    -897.420    -116.633
  H     -116.197    -900.000    -109.541
  H     -114.042    -892.230    -115.643
  H     -115.628    -894.130    -112.238
  H     -114.463    -896.190    -112.961
  H     -113.168    -896.770    -116.051
  H     -110.772    -895.680    -115.133
  H     -111.279    -896.010    -112.824
  H     -112.051    -898.900    -113.247
  H     -112.182    -897.790    -110.991
  H     -113.311    -896.600    -111.649
  P     -109.052    -897.030    -111.885
  C     -109.128    -898.780    -110.017
  O     -109.742    -897.620    -110.558
  O     -108.796    -895.570    -111.886
  O     -107.699    -897.870    -112.039
  H     -107.017    -897.310    -112.516
  H     -109.560    -898.980    -109.028
  H     -108.056    -898.660    -109.914
  H     -109.340    -899.650    -110.656
  H     -117.974    -896.696    -111.345
  H     -117.909    -898.140    -110.363
  H     -117.374    -898.189    -112.026

 3  4  5  6  7  8  9  10  11  12  13  23  28  29  30  31  32 0
 6-311+G(2d,p)
 ****
 33  34 0
 6-311+G(2d,p)
 ****
 1  2  14  15  16  17  18  19  20  21  22  24  25  26  27 0
 3-21G
 ****
 35  36  37  38  39  40  41  42  43  44  45 0
 3-21G
 ****


