%nproc=1
%NoSave
%Mem=1900MB
#P OB98/GEN NMR

erre ene a

0 1
  C       82.852      17.710    -899.120
  O       82.264      16.458    -898.860
  H       83.493      17.616    -900.000
  H       83.474      18.027    -898.270
  H       82.092      18.477    -899.320
  P       81.156      16.353    -897.700
  C       82.579      14.582    -896.480
  O       81.906      15.831    -896.380
  C       82.977      14.107    -895.080
  O       83.975      14.992    -894.520
  C       81.825      14.108    -894.080
  O       80.969      12.988    -894.290
  C       82.589      14.078    -892.760
  O       83.028      12.751    -892.440
  C       83.791      14.998    -893.080
  N       83.626      16.371    -892.570
  C       83.784      16.541    -891.210
  O       84.033      15.613    -890.430
  N       83.630      17.823    -890.760
  C       83.226      18.895    -891.490
  O       83.005      20.009    -891.010
  C       83.040      18.643    -892.930
  C       83.243      17.413    -893.400
  O       79.916      15.593    -898.070
  O       80.828      17.878    -897.360
  H       82.234      12.242    -892.200
  H       79.964      18.121    -897.740
  H       83.734      17.972    -889.760
  H       82.727      19.474    -893.550
  H       83.114      17.208    -894.450
  H       84.718      14.584    -892.650
  H       81.985      14.429    -891.920
  H       81.269      15.042    -894.140
  H       83.419      13.108    -895.160
  H       83.479      14.703    -897.090
  H       81.920      13.847    -896.950
  P       79.502      12.972    -893.630
  C       79.818      10.720    -892.420
  O       79.577      12.122    -892.270
  O       78.400      12.596    -894.560
  O       79.304      14.481    -893.110
  H       78.536      14.884    -893.560
  H       79.848      10.258    -891.455
  H       80.754      10.570    -892.916
  H       79.033      10.283    -893.001

 6  7  8  9  10  11  12  13  14  15  16  26  31  32  33  34  35 0
 6-311+G(2d,p)
 ****
 36  37 0
 6-311+G(2d,p)
 ****
 1  2  3  4  5  17  18  19  20  21  22  23  24  25 0
 3-21G
 ****
 27  28  29  30  38  39  40  41  42  43  44  45 0
 3-21G
 ****


