%nproc=1
%NoSave
%Mem=1900MB
#P OB98/GEN NMR

erre ene a

0 1
  C       90.407     134.508     162.735
  O       91.338     135.551     162.956
  H       90.409     134.254     161.670
  H       89.396     134.820     163.014
  H       90.689     133.621     163.309
  P       91.407     136.208     164.417
  C       89.685     137.472     165.879
  O       90.063     137.068     164.566
  C       88.600     138.541     165.806
  O       89.156     139.783     165.328
  C       87.475     138.191     164.841
  O       86.608     137.225     165.407
  C       86.864     139.558     164.605
  O       85.999     139.939     165.683
  C       88.123     140.457     164.564
  N       88.575     140.737     163.205
  C       88.119     141.932     162.642
  O       87.385     142.686     163.283
  N       88.491     142.231     161.354
  C       89.259     141.421     160.694
  N       89.588     141.777     159.421
  C       89.774     140.158     161.255
  C       89.392     139.878     162.502
  O       92.659     136.955     164.764
  O       91.156     134.969     165.400
  H       85.213     139.363     165.609
  H       92.002     134.543     165.635
  H       90.415     139.517     160.672
  H       89.726     138.970     162.992
  H       87.933     141.412     165.068
  H       86.279     139.581     163.686
  H       87.888     137.836     163.893
  H       88.213     138.716     166.820
  H       89.205     142.649     159.073
  H       90.580     137.873     166.366
  H       90.248     141.273     158.849
  H       89.330     136.613     166.461
  P       85.822     136.189     164.468
  C       83.882     136.376     162.778
  O       84.636     137.036     163.793
  O       85.405     134.918     165.133
  O       86.836     135.962     163.247
  H       87.602     135.391     163.514
  H       83.127     137.037     162.408
  H       83.421     135.502     163.188
  H       84.533     136.094     161.977

 6  7  8  9  10  11  12  13  14  15  16  26  30  31  32  33  35 0
 6-311+G(2d,p)
 ****
 37  38 0
 6-311+G(2d,p)
 ****
 1  2  3  4  5  17  18  19  20  21  22  23  24  25 0
 3-21G
 ****
 27  28  29  34  36  39  40  41  42  43  44  45  46 0
 3-21G
 ****


