%nproc=1
%NoSave
%Mem=1900MB
#P OB98/GEN NMR

erre ene a

0 1
  C       -7.114      88.647    -396.248
  O       -6.073      87.876    -396.818
  H       -8.076      88.240    -396.574
  H       -7.036      89.682    -396.590
  H       -7.067      88.610    -395.154
  P       -4.586      88.177    -396.301
  C       -4.502      89.906    -398.238
  O       -4.183      89.619    -396.884
  C       -3.287      90.474    -398.963
  O       -2.825      91.680    -398.307
  C       -2.082      89.531    -399.005
  O       -2.192      88.580    -400.060
  C       -0.961      90.522    -399.269
  O       -0.967      90.904    -400.665
  C       -1.373      91.708    -398.388
  N        2.884      91.949    -395.638
  C        2.707      92.004    -397.016
  N        3.823      92.143    -397.759
  N        1.544      91.940    -397.605
  C        0.510      91.794    -396.731
  C        0.559      91.722    -395.355
  C        1.852      91.813    -394.715
  O        2.063      91.784    -393.507
  N       -0.694      91.590    -394.815
  C       -1.498      91.559    -395.859
  N       -0.816      91.671    -397.050
  O       -3.682      87.169    -397.163
  O       -4.363      87.987    -394.838
  H       -0.981      90.081    -401.182
  H       -2.943      86.853    -396.605
  H        3.805      91.995    -395.240
  H       -2.574      91.455    -395.815
  H       -1.089      92.673    -398.833
  H        0.026      90.106    -399.063
  H        4.756      92.149    -397.372
  H       -1.922      89.044    -398.039
  H        3.719      92.219    -398.765
  H       -3.593      90.750    -399.983
  H       -5.316      90.639    -398.269
  H       -4.838      88.984    -398.730
  P       -1.859      87.046    -399.716
  C        0.250      87.237    -401.224
  O       -0.275      86.889    -399.947
  O       -2.494      86.252    -400.958
  O       -2.387      86.565    -398.406
  H       -2.685      85.332    -400.698
  H        1.309      87.082    -401.229
  H        0.039      88.266    -401.428
  H       -0.203      86.624    -401.975

 6  7  8  9  10  11  12  13  14  15  26  29  33  34 0
 6-311+G(2d,p)
 ****
 36  38  39  40  41 0
 6-311+G(2d,p)
 ****
 1  2  3  4  5  16  17  18  19  20  21  22  23  24  25 0
 3-21G
 ****
 27  28  30  31  32  35  37  42  43  44  45  46  47 0
 3-21G
 ****
 48  49 0
 3-21G
 ****


