%nproc=1
%NoSave
%Mem=1900MB
#P OB98/GEN NMR

erre ene a

0 1
  C     -734.931    -685.859    -646.246
  O     -735.354    -684.635    -645.686
  H     -733.897    -685.751    -646.586
  H     -735.563    -686.119    -647.104
  H     -734.979    -686.654    -645.501
  P     -736.878    -684.557    -645.174
  C     -736.222    -682.525    -643.697
  O     -737.114    -683.055    -644.667
  C     -736.518    -681.042    -643.480
  O     -736.115    -680.278    -644.631
  C     -738.001    -680.733    -643.286
  O     -738.456    -681.035    -641.972
  C     -738.025    -679.241    -643.590
  O     -737.671    -678.464    -642.427
  C     -736.960    -679.115    -644.694
  N     -737.562    -678.934    -646.016
  C     -738.010    -677.649    -646.312
  O     -737.914    -676.701    -645.522
  N     -738.596    -677.486    -647.526
  C     -738.825    -678.472    -648.456
  O     -739.427    -678.282    -649.510
  C     -738.313    -679.812    -648.091
  C     -737.723    -679.975    -646.906
  O     -736.852    -685.416    -643.821
  O     -737.896    -685.060    -646.147
  H     -737.237    -686.296    -643.987
  H     -738.443    -678.516    -641.820
  H     -738.940    -676.565    -647.753
  H     -738.476    -680.605    -648.805
  H     -737.369    -680.949    -646.617
  H     -736.303    -678.245    -644.502
  H     -739.017    -678.904    -643.899
  H     -738.605    -681.255    -644.043
  H     -735.932    -680.690    -642.616
  H     -735.190    -682.629    -644.058
  H     -736.322    -683.085    -642.761
  P     -739.747    -681.965    -641.811
  C     -738.695    -683.220    -639.735
  O     -739.762    -682.447    -640.270
  O     -739.306    -683.270    -642.614
  O     -741.024    -681.331    -642.270
  H     -738.358    -683.466    -642.528
  H     -738.892    -683.436    -638.706
  H     -737.781    -682.670    -639.815
  H     -738.609    -684.136    -640.282

 6  7  8  9  10  11  12  13  14  15  16  27  31  32  33  34  35 0
 6-311+G(2d,p)
 ****
 36  37 0
 6-311+G(2d,p)
 ****
 1  2  3  4  5  17  18  19  20  21  22  23  24  25 0
 3-21G
 ****
 26  28  29  30  38  39  40  41  42  43  44  45 0
 3-21G
 ****


