%nproc=1
%NoSave
%Mem=1900MB
#P OB98/GEN NMR

erre ene a

0 1
  C      189.653       5.889     135.044
  O      189.469       7.243     134.697
  H      190.709       5.732     135.285
  H      189.395       5.240     134.204
  H      189.051       5.629     135.918
  P      188.012       7.750     134.252
  C      189.297       9.662     133.119
  O      188.187       9.321     133.940
  C      190.016      10.900     133.654
  O      190.644      10.584     134.927
  C      191.113      11.432     132.718
  O      190.985      12.849     132.579
  C      192.403      11.107     133.456
  O      193.486      11.952     133.086
  C      191.936      11.218     134.912
  N      192.874      10.593     135.837
  C      193.787      11.448     136.460
  O      193.767      12.657     136.222
  N      194.734      10.911     137.294
  C      194.796       9.625     137.451
  N      195.775       9.155     138.269
  C      193.868       8.683     136.792
  C      192.938       9.230     136.007
  O      186.916       7.413     135.206
  O      187.789       7.126     132.795
  H      194.205      11.845     133.747
  H      186.822       7.088     132.608
  H      193.963       7.619     136.953
  H      192.214       8.619     135.479
  H      191.805      12.269     135.203
  H      192.692      10.070     133.236
  H      191.092      10.976     131.729
  H      189.267      11.673     133.866
  H      196.393       9.836     138.695
  H      188.936       9.840     132.100
  H      195.936       8.176     138.448
  H      189.994       8.819     133.113
  P      190.895      13.409     131.077
  C      192.802      15.167     130.959
  O      191.406      14.930     131.086
  O      189.320      13.530     130.823
  O      191.549      12.521     130.072
  H      189.036      12.854     130.180
  H      192.988      16.220     130.982
  H      193.149      14.763     130.031
  H      193.319      14.696     131.769

 6  7  8  9  10  11  12  13  14  15  16  26  30  31  32  33  35 0
 6-311+G(2d,p)
 ****
 37  38 0
 6-311+G(2d,p)
 ****
 1  2  3  4  5  17  18  19  20  21  22  23  24  25 0
 3-21G
 ****
 27  28  29  34  36  39  40  41  42  43  44  45  46 0
 3-21G
 ****


