%nproc=1
%NoSave
%Mem=1900MB
#P OB98/GEN NMR

erre ene a

0 1
  C     -363.647     186.084     362.703
  O     -362.969     186.660     363.804
  P     -363.198     186.104     365.290
  C     -364.579     188.141     366.029
  O     -364.579     186.735     365.807
  C     -364.836     188.456     367.504
  O     -364.628     189.869     367.725
  C     -366.256     188.125     367.954
  O     -366.215     187.645     369.299
  C     -366.971     189.465     367.947
  O     -368.070     189.474     368.871
  C     -365.825     190.421     368.299
  N     -368.466     194.807     368.715
  C     -368.496     193.667     369.445
  N     -367.786     192.535     369.262
  C     -366.936     192.671     368.232
  C     -366.793     193.770     367.395
  C     -367.612     194.879     367.667
  N     -367.575     196.045     366.930
  N     -365.838     193.526     366.422
  C     -365.405     192.314     366.681
  N     -366.028     191.757     367.767
  O     -362.047     186.283     366.217
  O     -363.562     184.560     365.085
  H     -368.643     188.709     368.646
  H     -363.158     184.020     365.793
  H     -369.185     193.666     370.284
  H     -364.652     191.787     366.109
  H     -365.683     190.498     369.385
  H     -367.369     189.666     366.945
  H     -366.750     187.391     367.308
  H     -364.101     187.912     368.110
  H     -365.374     188.588     365.426
  H     -368.107     196.826     367.275
  H     -366.817     196.164     366.268
  H     -363.622     188.562     365.707
  P     -367.271     186.484     369.669
  C     -367.821     187.664     371.925
  O     -368.295     187.176     370.688
  O     -366.593     185.235     370.122
  O     -368.075     186.351     368.289
  H     -368.031     187.183     367.767
  H     -368.669     188.062     372.492
  H     -367.103     188.471     371.761
  H     -367.354     186.864     372.499
  H     -363.363     186.590     361.804
  H     -364.703     186.177     362.846
  H     -363.388     185.049     362.626

 3  4  5  6  7  8  9  10  11  12  22  25  29  30  31  32 0
 6-311+G(2d,p)
 ****
 33  36  37 0
 6-311+G(2d,p)
 ****
 1  2  13  14  15  16  17  18  19  20  21  23  24  26 0
 3-21G
 ****
 27  28  34  35  38  39  40  41  42  43  44  45  46  47  48 0
 3-21G
 ****


