%nproc=1
%NoSave
%Mem=1900MB
#P OB98/GEN NMR

erre ene a

0 1
  C      448.149    -343.548    1854.569
  O      447.762    -342.185    1854.517
  H      448.895    -343.675    1855.339
  H      448.578    -343.846    1853.602
  H      447.282    -344.182    1854.786
  P      446.487    -341.747    1853.660
  C      445.123    -340.618    1855.540
  O      445.244    -341.754    1854.677
  C      443.981    -340.837    1856.552
  O      442.759    -341.220    1855.807
  C      444.233    -341.956    1857.590
  O      443.560    -341.566    1858.789
  C      443.538    -343.132    1856.932
  O      443.379    -344.199    1857.830
  C      442.288    -342.460    1856.397
  N      441.560    -343.255    1855.424
  C      440.800    -344.342    1855.935
  O      440.761    -344.649    1857.109
  N      440.191    -345.086    1854.976
  C      440.190    -344.895    1853.629
  O      439.559    -345.607    1852.845
  C      440.981    -343.750    1853.149
  C      441.605    -342.995    1854.083
  O      446.263    -342.520    1852.392
  O      446.716    -340.194    1853.375
  H      447.114    -340.081    1852.475
  H      444.258    -344.649    1857.968
  H      439.652    -345.887    1855.324
  H      441.025    -343.561    1852.113
  H      442.237    -342.126    1853.768
  H      441.621    -342.154    1857.205
  H      444.162    -343.536    1856.094
  H      445.318    -342.099    1857.775
  H      443.759    -339.868    1857.041
  H      444.916    -339.736    1854.927
  H      446.063    -340.481    1856.071
  P      444.251    -340.582    1859.888
  C      442.663    -338.566    1860.208
  O      443.813    -339.050    1859.545
  O      445.706    -340.774    1860.044
  O      443.488    -340.906    1861.261
  H      444.110    -340.837    1862.016
  H      442.475    -337.557    1859.905
  H      442.821    -338.598    1861.266
  H      441.822    -339.177    1859.955

 6  7  8  9  10  11  12  13  14  15  16  27  31  32  33  34  35 0
 6-311+G(2d,p)
 ****
 36  37 0
 6-311+G(2d,p)
 ****
 1  2  3  4  5  17  18  19  20  21  22  23  24  25 0
 3-21G
 ****
 26  28  29  30  38  39  40  41  42  43  44  45 0
 3-21G
 ****


