%nproc=1
%NoSave
%Mem=1900MB
#P OB98/GEN NMR

erre ene a

0 1
  C     -395.857     194.786    -394.389
  O     -396.362     194.471    -393.107
  H     -395.028     194.109    -394.617
  H     -395.487     195.818    -394.412
  H     -396.641     194.661    -395.143
  P     -397.524     195.432    -392.542
  C     -397.448     197.942    -391.825
  O     -396.723     196.744    -392.063
  C     -396.557     199.153    -392.102
  O     -396.705     199.583    -393.474
  C     -396.880     200.375    -391.255
  O     -396.362     200.288    -389.935
  C     -396.192     201.459    -392.065
  O     -394.769     201.396    -391.842
  C     -396.554     201.032    -393.507
  N     -397.780     201.667    -394.004
  C     -397.764     203.061    -394.105
  O     -396.766     203.702    -393.777
  N     -398.895     203.708    -394.554
  C     -399.946     203.014    -394.877
  N     -401.043     203.709    -395.296
  C     -399.999     201.544    -394.802
  C     -398.898     200.944    -394.358
  O     -397.933     194.749    -391.155
  O     -398.666     195.693    -393.469
  H     -394.638     201.363    -390.877
  H     -398.563     195.336    -390.668
  H     -400.903     201.015    -395.074
  H     -398.861     199.862    -394.281
  H     -395.734     201.255    -394.202
  H     -396.518     202.469    -391.797
  H     -397.961     200.582    -391.233
  H     -395.507     198.837    -391.971
  H     -400.997     204.718    -395.279
  H     -397.780     197.945    -390.776
  H     -401.956     203.277    -395.398
  H     -398.333     197.985    -392.471
  P     -397.230     200.930    -388.746
  C     -397.679     203.330    -387.851
  O     -397.062     202.525    -388.844
  O     -396.386     200.555    -387.442
  O     -398.647     200.444    -388.665
  H     -396.976     200.321    -386.695
  H     -397.478     204.361    -388.052
  H     -397.289     203.071    -386.889
  H     -398.736     203.164    -387.863

 6  7  8  9  10  11  12  13  14  15  16  26  30  31  32  33  35 0
 6-311+G(2d,p)
 ****
 37  38 0
 6-311+G(2d,p)
 ****
 1  2  3  4  5  17  18  19  20  21  22  23  24  25 0
 3-21G
 ****
 27  28  29  34  36  39  40  41  42  43  44  45  46 0
 3-21G
 ****


