%nproc=1
%NoSave
%Mem=1900MB
#P OB98/GEN NMR

erre ene a

0 1
  C       30.655     -19.424     -36.186
  O       29.356     -19.875     -36.578
  P       28.136     -18.841     -36.701
  C       26.381     -19.595     -34.995
  O       27.435     -18.675     -35.262
  C       25.609     -19.277     -33.707
  O       26.435     -19.496     -32.536
  C       25.069     -17.843     -33.614
  O       23.839     -17.930     -32.887
  C       26.140     -17.152     -32.790
  O       25.679     -15.935     -32.208
  C       26.508     -18.261     -31.796
  N       27.827     -18.061     -31.200
  C       27.956     -17.019     -30.279
  O       26.997     -16.276     -30.042
  N       29.177     -16.808     -29.684
  C       30.205     -17.510     -30.057
  N       31.392     -17.237     -29.450
  C       30.132     -18.565     -31.089
  C       28.921     -18.791     -31.608
  O       27.184     -19.128     -37.823
  O       28.857     -17.425     -36.928
  H       26.303     -15.681     -31.490
  H       28.276     -16.851     -37.467
  H       31.020     -19.107     -31.385
  H       28.770     -19.546     -32.365
  H       25.768     -18.317     -30.985
  H       27.000     -16.907     -33.425
  H       24.918     -17.373     -34.590
  H       24.777     -19.990     -33.641
  H       31.403     -16.488     -28.764
  H       26.810     -20.604     -34.915
  H       32.271     -17.642     -29.744
  H       25.692     -19.606     -35.848
  P       22.450     -17.433     -33.506
  C       22.140     -15.085     -32.525
  O       22.554     -15.839     -33.652
  O       21.231     -17.912     -32.787
  O       22.466     -17.941     -35.031
  H       21.559     -17.928     -35.382
  H       22.454     -14.047     -32.660
  H       22.593     -15.479     -31.608
  H       21.052     -15.122     -32.439
  H       31.329     -20.255     -36.162
  H       30.600     -18.981     -35.214
  H       31.008     -18.699     -36.889

 3  4  5  6  7  8  9  10  11  12  13  23  27  28  29  30  32 0
 6-311+G(2d,p)
 ****
 34  35 0
 6-311+G(2d,p)
 ****
 1  2  14  15  16  17  18  19  20  21  22  24  25  26 0
 3-21G
 ****
 31  33  36  37  38  39  40  41  42  43  44  45  46 0
 3-21G
 ****


