%nproc=1
%NoSave
%Mem=1900MB
#P OB98/GEN NMR

erre ene a

0 1
  C     -573.670     251.061     266.623
  O     -572.411     251.659     266.378
  H     -574.241     251.057     265.690
  H     -574.222     251.638     267.368
  H     -573.550     250.029     266.964
  P     -571.315     251.655     267.548
  C     -571.810     253.914     268.699
  O     -571.929     252.496     268.764
  C     -571.068     254.434     269.924
  O     -571.919     254.366     271.090
  C     -569.822     253.627     270.283
  O     -568.748     253.929     269.413
  C     -569.609     254.041     271.730
  O     -568.941     255.315     271.803
  C     -571.065     254.149     272.238
  N     -571.490     252.965     272.995
  C     -571.095     252.912     274.333
  O     -570.399     253.767     274.862
  N     -571.502     251.804     275.024
  C     -572.157     250.715     274.504
  O     -572.423     249.716     275.147
  C     -572.531     250.825     273.087
  C     -572.190     251.930     272.406
  O     -569.933     252.049     267.141
  O     -571.355     250.151     268.099
  H     -569.372     255.884     271.140
  H     -570.571     249.668     267.780
  H     -571.218     251.738     275.985
  H     -573.062     249.997     272.635
  H     -572.446     252.021     271.356
  H     -571.179     255.029     272.883
  H     -568.998     253.323     272.278
  H     -570.055     252.553     270.256
  H     -570.807     255.483     269.755
  H     -572.816     254.351     268.672
  H     -571.280     254.182     267.777
  P     -567.610     252.838     269.142
  C     -565.326     253.709     269.957
  O     -566.510     252.988     270.300
  O     -567.060     252.816     267.751
  O     -568.316     251.447     269.498
  H     -568.322     250.883     268.702
  H     -564.672     253.743     270.803
  H     -565.587     254.706     269.667
  H     -564.833     253.219     269.144

 6  7  8  9  10  11  12  13  14  15  16  26  31  32  33  34  35 0
 6-311+G(2d,p)
 ****
 36  37 0
 6-311+G(2d,p)
 ****
 1  2  3  4  5  17  18  19  20  21  22  23  24  25 0
 3-21G
 ****
 27  28  29  30  38  39  40  41  42  43  44  45 0
 3-21G
 ****


