%nproc=1
%NoSave
%Mem=1900MB
#P OB98/GEN NMR

erre ene a

0 1
  C      817.839     227.421    -402.645
  O      816.524     227.671    -403.152
  P      815.274     227.510    -402.170
  C      814.003     226.139    -403.939
  O      813.951     227.239    -403.040
  C      813.452     226.538    -405.316
  O      811.998     226.625    -405.273
  C      813.960     227.910    -405.793
  O      814.097     227.924    -407.221
  C      812.827     228.846    -405.412
  O      812.875     230.060    -406.172
  C      811.609     227.951    -405.699
  N      808.300     231.806    -405.046
  C      809.362     231.670    -405.877
  N      810.180     230.606    -406.010
  C      809.823     229.607    -405.176
  C      808.753     229.600    -404.286
  C      807.978     230.782    -404.223
  N      806.912     230.932    -403.361
  N      808.685     228.391    -403.600
  C      809.722     227.710    -404.037
  N      810.409     228.378    -405.014
  O      815.131     228.571    -401.126
  O      815.529     226.080    -401.483
  H      813.056     229.823    -407.093
  H      815.335     226.131    -400.530
  H      809.583     232.514    -406.518
  H      810.018     226.733    -403.678
  H      811.386     227.906    -406.780
  H      812.893     229.100    -404.356
  H      814.914     228.211    -405.336
  H      813.693     225.765    -406.045
  H      813.429     225.298    -403.529
  H      806.496     231.850    -403.305
  H      806.762     230.233    -402.643
  H      815.034     225.782    -404.016
  P      815.551     227.560    -407.792
  C      815.175     229.119    -409.868
  O      815.485     227.836    -409.378
  O      816.033     226.199    -407.383
  O      816.452     228.761    -407.217
  H      816.103     229.645    -407.379
  H      815.307     229.126    -410.944
  H      815.820     229.877    -409.421
  H      814.126     229.353    -409.641
  H      818.556     227.572    -403.424
  H      817.900     226.412    -402.295
  H      818.043     228.092    -401.837

 3  4  5  6  7  8  9  10  11  12  22  25  29  30  31  32 0
 6-311+G(2d,p)
 ****
 33  36  37 0
 6-311+G(2d,p)
 ****
 1  2  13  14  15  16  17  18  19  20  21  23  24  26 0
 3-21G
 ****
 27  28  34  35  38  39  40  41  42  43  44  45  46  47  48 0
 3-21G
 ****


