%nproc=1
%NoSave
%Mem=1900MB
#P OB98/GEN NMR

erre ene a

0 1
  C      656.838    -891.380    -105.283
  O      655.860    -892.060    -106.043
  H      656.458    -890.380    -105.036
  H      657.758    -891.260    -105.867
  H      657.052    -891.910    -104.361
  P      656.182    -893.550    -106.537
  C      653.830    -894.360    -105.816
  O      655.237    -894.470    -105.631
  C      653.274    -895.630    -106.447
  O      653.530    -896.780    -105.617
  C      651.750    -895.640    -106.657
  O      651.319    -894.800    -107.715
  C      651.534    -897.110    -106.935
  O      651.956    -897.400    -108.281
  C      652.472    -897.760    -105.889
  N      651.770    -898.120    -104.652
  C      650.806    -899.120    -104.758
  O      650.574    -899.650    -105.827
  N      650.110    -899.480    -103.626
  C      650.334    -898.860    -102.491
  N      649.611    -899.270    -101.424
  C      651.318    -897.790    -102.361
  C      652.000    -897.470    -103.470
  O      657.619    -893.930    -106.565
  O      655.460    -893.660    -107.969
  H      651.635    -898.290    -108.495
  H      655.643    -894.560    -108.327
  H      651.451    -897.290    -101.403
  H      652.746    -896.680    -103.444
  H      652.951    -898.650    -106.306
  H      650.488    -897.410    -106.858
  H      651.229    -895.370    -105.710
  H      653.810    -895.790    -107.401
  H      648.923    -900.000    -101.558
  H      653.632    -893.490    -106.443
  H      649.665    -898.780    -100.529
  H      653.340    -894.210    -104.838
  P      649.810    -894.230    -107.644
  C      650.712    -891.920    -106.821
  O      649.858    -893.020    -106.578
  O      649.038    -895.400    -106.852
  O      649.189    -893.900    -108.953
  H      648.558    -895.970    -107.486
  H      650.621    -891.215    -106.022
  H      650.437    -891.452    -107.743
  H      651.724    -892.261    -106.882

 6  7  8  9  10  11  12  13  14  15  16  26  30  31  32  33  35 0
 6-311+G(2d,p)
 ****
 37  38 0
 6-311+G(2d,p)
 ****
 1  2  3  4  5  17  18  19  20  21  22  23  24  25 0
 3-21G
 ****
 27  28  29  34  36  39  40  41  42  43  44  45  46 0
 3-21G
 ****


