%nproc=1
%NoSave
%Mem=1900MB
#P OB98/GEN NMR

erre ene a

0 1
  C      654.538     909.194    -812.608
  O      655.750     908.470    -812.755
  P      656.754     908.151    -811.557
  C      655.793     905.784    -811.025
  O      656.014     907.109    -810.572
  C      656.705     904.759    -810.363
  O      656.708     904.953    -808.936
  C      656.157     903.342    -810.607
  O      656.443     902.656    -811.812
  C      656.499     902.567    -809.338
  O      657.685     901.783    -809.469
  C      656.715     903.666    -808.283
  N      654.329     900.922    -804.749
  C      655.505     900.653    -805.426
  N      655.993     899.387    -805.258
  N      656.107     901.509    -806.182
  C      655.456     902.685    -806.324
  C      654.306     903.083    -805.693
  C      653.651     902.148    -804.802
  O      652.564     902.326    -804.258
  N      653.888     904.324    -806.129
  C      654.769     904.657    -807.044
  N      655.714     903.681    -807.227
  O      657.486     909.313    -810.976
  O      657.832     907.203    -812.278
  H      657.473     900.991    -809.980
  H      658.705     907.374    -811.872
  H      653.861     900.199    -804.216
  H      654.735     905.573    -807.620
  H      657.693     903.558    -807.801
  H      655.699     901.867    -809.074
  H      655.470     898.674    -804.802
  H      655.070     903.418    -810.606
  H      656.752     899.109    -805.882
  H      657.741     904.897    -810.679
  H      655.912     905.801    -812.108
  H      654.741     905.514    -810.815
  P      655.690     901.367    -812.383
  C      654.451     902.647    -814.226
  O      654.318     901.842    -813.063
  O      655.183     900.603    -811.052
  O      656.529     900.461    -813.210
  H      655.036     899.664    -811.244
  H      653.500     903.145    -814.421
  H      654.716     902.009    -815.102
  H      655.239     903.404    -814.078
  H      654.051     909.270    -813.558
  H      654.751     910.175    -812.236
  H      653.898     908.683    -811.919

 3  4  5  6  7  8  9  10  11  12  23  26  30  31 0
 6-311+G(2d,p)
 ****
 33  35  36  37  38 0
 6-311+G(2d,p)
 ****
 1  2  13  14  15  16  17  18  19  20  21  22  24  25 0
 3-21G
 ****
 27  28  29  32  34  39  40  41  42  43  44  45  46  47  48  49 0
 3-21G
 ****


