%nproc=1
%NoSave
%Mem=1900MB
#P OB98/GEN NMR

erre ene a

0 1
  C      -19.625      55.071     334.346
  O      -18.731      55.064     333.251
  H      -20.645      54.966     333.966
  H      -19.548      56.015     334.892
  H      -19.410      54.233     335.013
  P      -17.174      55.265     333.586
  C      -17.073      57.802     333.027
  O      -16.994      56.797     334.030
  C      -15.974      58.835     333.251
  O      -16.370      59.755     334.295
  C      -14.649      58.243     333.710
  O      -13.917      57.671     332.640
  C      -13.973      59.474     334.295
  O      -13.326      60.255     333.279
  C      -15.162      60.244     334.914
  N      -15.202      60.117     336.368
  C      -14.244      60.854     337.064
  O      -13.407      61.565     336.509
  N      -14.256      60.709     338.427
  C      -15.086      59.891     339.139
  O      -14.993      59.753     340.352
  C      -16.085      59.153     338.350
  C      -16.094      59.289     337.022
  O      -16.483      55.202     332.144
  O      -16.598      54.265     334.534
  H      -16.062      54.331     332.015
  H      -14.042      60.655     332.748
  H      -13.563      61.224     338.946
  H      -16.763      58.497     338.888
  H      -16.807      58.736     336.418
  H      -15.090      61.312     334.670
  H      -13.206      59.201     335.022
  H      -14.816      57.514     334.511
  H      -15.840      59.409     332.322
  H      -18.048      58.299     333.083
  H      -16.973      57.331     332.042
  P      -13.131      56.295     332.897
  C      -10.726      57.309     333.215
  O      -11.849      56.663     333.788
  O      -12.530      56.006     331.447
  O      -13.991      55.209     333.452
  H      -12.266      56.814     330.973
  H       -9.982      57.466     333.968
  H      -11.026      58.252     332.808
  H      -10.321      56.697     332.436

 6  7  8  9  10  11  12  13  14  15  16  27  31  32  33  34  35 0
 6-311+G(2d,p)
 ****
 36  37 0
 6-311+G(2d,p)
 ****
 1  2  3  4  5  17  18  19  20  21  22  23  24  25 0
 3-21G
 ****
 26  28  29  30  38  39  40  41  42  43  44  45 0
 3-21G
 ****


