%nproc=1
%NoSave
%Mem=1900MB
#P OB98/GEN NMR

erre ene a

0 1
  C      340.095     -45.509     -97.085
  O      341.316     -44.798     -97.018
  H      340.170     -46.249     -97.884
  H      339.266     -44.831     -97.312
  H      339.905     -46.030     -96.142
  P      341.422     -43.565     -95.994
  C      340.551     -41.129     -96.176
  O      340.380     -42.482     -96.571
  C      339.574     -40.229     -96.932
  O      340.015     -40.010     -98.293
  C      338.159     -40.789     -97.069
  O      337.412     -40.727     -95.865
  C      337.614     -39.864     -98.142
  O      337.303     -38.580     -97.567
  C      338.830     -39.761     -99.098
  N      338.760     -40.698    -100.214
  C      339.311     -40.280    -101.429
  O      339.828     -39.165    -101.530
  N      339.233     -41.113    -102.518
  C      338.641     -42.263    -102.410
  N      338.549     -43.029    -103.532
  C      338.063     -42.758    -101.145
  C      338.148     -41.935    -100.100
  O      342.796     -43.046     -95.723
  O      340.660     -44.071     -94.678
  H      338.020     -38.366     -96.947
  H      340.711     -43.346     -94.008
  H      337.569     -43.718    -101.112
  H      337.730     -42.216     -99.141
  H      338.926     -38.743     -99.496
  H      336.703     -40.240     -98.612
  H      338.185     -41.810     -97.461
  H      339.575     -39.248     -96.433
  H      338.920     -42.642    -104.390
  H      341.589     -40.841     -96.379
  H      337.878     -43.789    -103.599
  H      340.360     -41.021     -95.102
  P      336.710     -42.072     -95.347
  C      334.349     -43.114     -95.724
  O      335.361     -42.247     -96.207
  O      336.182     -41.667     -93.893
  O      337.576     -43.296     -95.325
  H      336.830     -41.917     -93.203
  H      333.526     -43.117     -96.408
  H      334.016     -42.774     -94.766
  H      334.742     -44.105     -95.634

 6  7  8  9  10  11  12  13  14  15  16  26  30  31  32  33  35 0
 6-311+G(2d,p)
 ****
 37  38 0
 6-311+G(2d,p)
 ****
 1  2  3  4  5  17  18  19  20  21  22  23  24  25 0
 3-21G
 ****
 27  28  29  34  36  39  40  41  42  43  44  45  46 0
 3-21G
 ****


