%nproc=1
%NoSave
%Mem=1900MB
#P OB98/GEN NMR

erre ene a

0 1
  C      174.564     199.531      41.870
  O      173.864     198.910      42.962
  P      174.709     198.198      44.127
  C      174.914     195.780      43.171
  O      175.572     196.985      43.533
  C      175.856     194.569      43.298
  O      175.080     193.332      43.311
  C      176.883     194.441      42.166
  O      178.070     193.864      42.737
  C      176.219     193.453      41.226
  O      177.130     192.828      40.333
  C      175.582     192.501      42.243
  N      174.514     191.662      41.693
  C      174.849     190.751      40.690
  O      175.969     190.649      40.197
  N      173.824     189.961      40.242
  C      172.523     190.012      40.651
  O      171.646     189.297      40.184
  C      172.222     191.010      41.687
  C      173.214     191.773      42.150
  O      173.567     197.433      44.948
  O      175.460     199.125      45.029
  H      176.615     192.232      39.757
  H      173.693     197.578      45.907
  H      174.051     189.286      39.528
  H      171.203     191.082      42.043
  H      173.018     192.510      42.927
  H      176.356     191.858      42.678
  H      175.467     193.975      40.623
  H      177.121     195.402      41.692
  H      176.361     194.634      44.270
  H      174.570     195.854      42.136
  H      174.038     195.643      43.815
  P      179.363     194.796      42.916
  C      180.727     194.115      40.794
  O      179.951     195.086      41.458
  O      180.398     193.733      43.528
  O      179.151     195.985      43.801
  H      180.388     192.885      43.051
  H      180.313     193.110      40.934
  H      181.754     194.144      41.168
  H      180.736     194.340      39.722
  H      173.857     199.955      41.188
  H      175.155     198.798      41.362
  H      175.201     200.303      42.248

 3  4  5  6  7  8  9  10  11  12  13  23  28  29  30  31  32 0
 6-311+G(2d,p)
 ****
 33  34 0
 6-311+G(2d,p)
 ****
 1  2  14  15  16  17  18  19  20  21  22  24  25  26 0
 3-21G
 ****
 27  35  36  37  38  39  40  41  42  43  44  45 0
 3-21G
 ****


