%nproc=1
%NoSave
%Mem=1900MB
#P OB98/GEN NMR

erre ene a

0 1
  C      337.866     529.515     523.252
  O      336.543     529.895     523.565
  H      337.932     528.422     523.275
  H      338.559     529.920     524.001
  H      338.159     529.857     522.258
  P      336.101     531.410     523.320
  C      334.560     532.004     525.304
  O      334.632     531.565     523.959
  C      333.110     532.084     525.782
  O      332.359     532.940     524.866
  C      332.395     530.727     525.829
  O      331.429     530.780     526.893
  C      331.700     530.700     524.487
  O      330.663     529.736     524.451
  C      331.265     532.160     524.356
  N      330.926     532.531     522.979
  C      329.618     532.290     522.578
  O      328.764     531.778     523.298
  N      329.318     532.631     521.287
  C      330.195     533.109     520.357
  O      329.883     533.368     519.203
  C      331.584     533.298     520.828
  C      331.878     533.000     522.096
  O      336.225     531.911     521.920
  O      337.010     532.261     524.330
  H      331.003     528.860     524.725
  H      337.177     533.151     523.969
  H      328.368     532.483     520.977
  H      332.310     533.665     520.114
  H      332.890     533.124     522.469
  H      330.384     532.362     524.977
  H      332.407     530.442     523.692
  H      333.078     529.886     525.982
  H      333.085     532.577     526.767
  H      335.031     533.004     525.361
  H      335.126     531.319     525.946
  P      331.267     529.603     527.967
  C      328.700     529.643     528.208
  O      329.958     529.881     528.842
  O      332.497     529.331     528.766
  O      330.858     528.314     527.094
  H      331.163     527.505     527.543
  H      327.908     529.864     528.893
  H      328.639     528.617     527.911
  H      328.611     530.270     527.345

 6  7  8  9  10  11  12  13  14  15  16  26  31  32  33  34  35 0
 6-311+G(2d,p)
 ****
 36  37 0
 6-311+G(2d,p)
 ****
 1  2  3  4  5  17  18  19  20  21  22  23  24  25 0
 3-21G
 ****
 27  28  29  30  38  39  40  41  42  43  44  45 0
 3-21G
 ****


