%nproc=1
%NoSave
%Mem=1900MB
#P OB98/GEN NMR

erre ene a

0 1
  C      875.841    -267.341     356.981
  O      875.788    -265.914     356.909
  P      876.905    -265.124     356.065
  C      875.228    -263.465     354.938
  O      876.373    -263.646     355.753
  C      874.633    -262.069     355.147
  O      873.971    -261.996     356.432
  C      875.657    -260.945     355.174
  O      876.107    -260.608     353.865
  C      874.876    -259.831     355.844
  O      874.042    -259.142     354.904
  C      874.024    -260.622     356.862
  N      874.518    -260.503     358.230
  C      874.548    -259.223     358.772
  O      874.239    -258.209     358.139
  N      874.983    -259.135     360.071
  C      875.452    -260.168     360.836
  O      875.851    -260.023     361.984
  C      875.470    -261.482     360.181
  C      875.024    -261.587     358.927
  O      876.793    -265.825     354.630
  O      878.303    -265.224     356.594
  H      874.640    -258.759     354.222
  H      877.657    -265.782     354.169
  H      874.989    -258.219     360.492
  H      875.855    -262.330     360.736
  H      875.025    -262.555     358.423
  H      872.982    -260.258     356.840
  H      875.522    -259.078     356.303
  H      876.509    -261.224     355.811
  H      873.881    -261.894     354.361
  H      874.477    -264.217     355.197
  H      875.514    -263.604     353.885
  P      877.512    -261.241     353.400
  C      877.692    -260.490     350.896
  O      878.043    -260.262     352.245
  O      877.022    -262.554     352.639
  O      878.449    -261.499     354.539
  H      876.163    -262.420     352.186
  H      876.690    -260.904     350.807
  H      878.424    -261.169     350.446
  H      877.726    -259.528     350.364
  H      875.028    -267.698     357.578
  H      876.768    -267.642     357.423
  H      875.766    -267.751     355.995

 3  4  5  6  7  8  9  10  11  12  13  23  28  29  30  31  32 0
 6-311+G(2d,p)
 ****
 33  34 0
 6-311+G(2d,p)
 ****
 1  2  14  15  16  17  18  19  20  21  22  24  25  26 0
 3-21G
 ****
 27  35  36  37  38  39  40  41  42  43  44  45 0
 3-21G
 ****


