%nproc=1
%NoSave
%Mem=1900MB
#P OB98/GEN NMR

erre ene a

0 1
  C     -101.705    -195.189      -9.920
  O     -101.980    -196.339     -10.731
  P     -102.356    -196.255     -12.287
  C     -100.585    -197.956     -13.110
  O     -101.972    -197.658     -12.971
  C     -100.367    -199.470     -13.205
  O     -100.454    -200.072     -11.892
  C     -101.397    -200.228     -14.032
  O     -101.236    -200.014     -15.423
  C     -101.143    -201.665     -13.582
  O     -100.067    -202.260     -14.319
  C     -100.732    -201.481     -12.107
  N     -101.735    -201.961     -11.169
  C     -101.948    -203.341     -11.131
  O     -101.360    -204.083     -11.919
  N     -102.834    -203.838     -10.208
  C     -103.528    -203.025      -9.469
  N     -104.376    -203.578      -8.565
  C     -103.432    -201.557      -9.579
  C     -102.525    -201.097     -10.441
  O     -101.778    -195.070     -12.990
  O     -103.959    -196.232     -12.336
  H     -104.255    -195.778     -13.146
  H      -99.992    -203.185     -14.019
  H     -104.059    -200.920      -8.980
  H     -102.384    -200.029     -10.569
  H      -99.782    -201.996     -11.911
  H     -102.021    -202.301     -13.723
  H     -102.404    -199.919     -13.725
  H      -99.353    -199.642     -13.605
  H     -104.407    -204.595      -8.507
  H     -100.059    -197.581     -12.228
  H     -104.947    -203.037      -7.926
  H     -100.196    -197.448     -13.999
  P     -102.486    -200.380     -16.359
  C     -102.728    -198.085     -17.552
  O     -102.400    -199.465     -17.670
  O     -103.744    -199.796     -15.564
  O     -102.645    -201.844     -16.636
  H     -104.496    -200.413     -15.643
  H     -102.187    -197.533     -18.319
  H     -102.470    -197.689     -16.567
  H     -103.806    -197.961     -17.722
  H     -101.481    -195.502      -8.922
  H     -102.561    -194.547      -9.909
  H     -100.868    -194.659     -10.324

 3  4  5  6  7  8  9  10  11  12  13  24  27  28  29  30  32 0
 6-311+G(2d,p)
 ****
 34  35 0
 6-311+G(2d,p)
 ****
 1  2  14  15  16  17  18  19  20  21  22  23  25  26 0
 3-21G
 ****
 31  33  36  37  38  39  40  41  42  43  44  45  46 0
 3-21G
 ****


