%nproc=1
%NoSave
%Mem=1900MB
#P OB98/GEN NMR

erre ene a

0 1
  C     -478.916     208.894     -87.267
  O     -477.646     208.302     -87.075
  H     -479.123     208.935     -88.340
  H     -478.914     209.913     -86.873
  H     -479.693     208.302     -86.778
  P     -477.225     207.979     -85.558
  C     -476.372     205.509     -85.801
  O     -477.401     206.394     -85.395
  C     -476.781     204.056     -85.541
  O     -476.742     203.812     -84.113
  C     -478.184     203.709     -86.035
  O     -478.171     202.372     -86.540
  C     -479.032     203.784     -84.779
  O     -480.219     202.997     -84.892
  C     -478.035     203.324     -83.707
  N     -478.394     203.803     -82.368
  C     -479.335     203.049     -81.664
  O     -479.842     202.051     -82.178
  N     -479.720     203.469     -80.418
  C     -479.254     204.584     -79.945
  N     -479.692     204.960     -78.707
  C     -478.299     205.441     -80.677
  C     -477.908     204.985     -81.866
  O     -478.460     208.588     -84.741
  O     -475.891     208.522     -85.165
  H     -480.634     203.198     -85.758
  H     -479.320     208.409     -85.152
  H     -477.953     206.368     -80.246
  H     -477.202     205.548     -82.469
  H     -477.984     202.227     -83.675
  H     -479.336     204.822     -84.592
  H     -478.552     204.389     -86.806
  H     -476.027     203.402     -85.989
  H     -480.360     204.355     -78.248
  H     -475.447     205.730     -85.261
  H     -479.434     205.830     -78.267
  H     -476.194     205.666     -86.869
  P     -477.794     202.122     -88.079
  C     -475.451     201.211     -87.503
  O     -476.199     202.168     -88.234
  O     -478.550     202.928     -89.072
  O     -478.108     200.557     -88.267
  H     -478.498     200.435     -89.154
  H     -474.408     201.351     -87.695
  H     -475.740     200.226     -87.805
  H     -475.641     201.333     -86.457

 6  7  8  9  10  11  12  13  14  15  16  26  30  31  32  33  35 0
 6-311+G(2d,p)
 ****
 37  38 0
 6-311+G(2d,p)
 ****
 1  2  3  4  5  17  18  19  20  21  22  23  24  25 0
 3-21G
 ****
 27  28  29  34  36  39  40  41  42  43  44  45  46 0
 3-21G
 ****


