%nproc=1
%NoSave
%Mem=1900MB
#P OB98/GEN NMR

erre ene a

0 1
  C     -863.636    -249.239     -19.400
  O     -863.855    -249.751     -18.102
  H     -863.274    -248.211     -19.320
  H     -864.568    -249.234     -19.972
  H     -862.884    -249.837     -19.920
  P     -864.491    -251.213     -17.993
  C     -866.558    -250.459     -16.605
  O     -866.076    -251.020     -17.821
  C     -867.751    -249.557     -16.903
  O     -867.374    -248.541     -17.867
  C     -868.938    -250.280     -17.517
  O     -869.710    -250.982     -16.558
  C     -869.704    -249.114     -18.126
  O     -870.551    -248.468     -17.168
  C     -868.575    -248.173     -18.585
  N     -868.377    -248.228     -20.035
  C     -869.317    -247.526     -20.790
  O     -870.254    -246.902     -20.298
  N     -869.158    -247.610     -22.145
  C     -868.219    -248.340     -22.807
  O     -868.178    -248.418     -24.027
  C     -867.263    -249.071     -21.954
  C     -867.392    -248.981     -20.624
  O     -864.010    -251.719     -16.553
  O     -864.089    -252.157     -19.081
  H     -863.303    -252.387     -16.658
  H     -870.873    -247.650     -17.598
  H     -869.838    -247.106     -22.716
  H     -866.497    -249.665     -22.449
  H     -866.708    -249.526     -19.977
  H     -868.801    -247.140     -18.304
  H     -870.337    -249.451     -18.943
  H     -868.598    -250.943     -18.327
  H     -868.051    -249.050     -15.970
  H     -865.771    -249.857     -16.138
  H     -866.835    -251.265     -15.923
  P     -869.463    -252.564     -16.413
  C     -871.864    -252.947     -17.413
  O     -870.480    -253.268     -17.429
  O     -870.079    -252.828     -14.963
  O     -868.023    -252.943     -16.571
  H     -870.778    -252.180     -14.744
  H     -872.371    -253.519     -18.161
  H     -871.991    -251.904     -17.615
  H     -872.272    -253.176     -16.451

 6  7  8  9  10  11  12  13  14  15  16  27  31  32  33  34  35 0
 6-311+G(2d,p)
 ****
 36  37 0
 6-311+G(2d,p)
 ****
 1  2  3  4  5  17  18  19  20  21  22  23  24  25 0
 3-21G
 ****
 26  28  29  30  38  39  40  41  42  43  44  45 0
 3-21G
 ****


