%nproc=1
%NoSave
%Mem=1900MB
#P OB98/GEN NMR

erre ene a

0 1
  C       -5.392    -182.306     421.333
  O       -5.726    -181.652     422.561
  P       -4.767    -180.453     423.031
  C       -6.589    -178.622     422.769
  O       -5.674    -179.274     423.640
  C       -7.843    -178.138     423.511
  O       -8.532    -179.250     424.143
  C       -7.546    -177.108     424.596
  O       -8.662    -176.204     424.652
  C       -7.535    -177.940     425.873
  O       -7.757    -177.128     427.025
  C       -8.657    -178.950     425.557
  N       -8.590    -180.159     426.377
  C       -9.473    -180.245     427.455
  O      -10.215    -179.296     427.727
  N       -9.459    -181.384     428.232
  C       -8.610    -182.319     427.981
  N       -8.643    -183.426     428.785
  C       -7.618    -182.250     426.890
  C       -7.670    -181.152     426.134
  O       -4.238    -179.845     421.642
  O       -3.635    -180.893     423.901
  H       -7.807    -177.722     427.804
  H       -3.269    -179.756     421.674
  H       -6.911    -183.049     426.733
  H       -6.984    -181.006     425.304
  H       -9.642    -178.495     425.708
  H       -6.573    -178.448     425.983
  H       -6.624    -176.543     424.435
  H       -8.535    -177.713     422.771
  H       -9.341    -183.443     429.525
  H       -6.887    -179.296     421.959
  H       -8.028    -184.215     428.683
  H       -6.074    -177.778     422.283
  P       -8.406    -174.654     424.338
  C       -8.894    -174.069     421.880
  O       -9.451    -174.294     423.168
  O       -7.020    -174.718     423.524
  O       -8.324    -173.699     425.486
  H       -6.716    -173.815     423.336
  H       -9.712    -173.959     421.159
  H       -8.268    -174.919     421.580
  H       -8.307    -173.154     421.882
  H       -6.104    -183.080     421.136
  H       -4.414    -182.733     421.411
  H       -5.408    -181.594     420.534

 3  4  5  6  7  8  9  10  11  12  13  21  23  27  28  29  30  32 0
 6-311+G(2d,p)
 ****
 34  35 0
 6-311+G(2d,p)
 ****
 1  2  14  15  16  17  18  19  20  22  24  25  26 0
 3-21G
 ****
 31  33  36  37  38  39  40  41  42  43  44  45  46 0
 3-21G
 ****


