%nproc=1
%NoSave
%Mem=1900MB
#P OB98/GEN NMR

erre ene a

0 1
  C      -51.629     754.920    1046.630
  O      -52.908     754.945    1047.234
  H      -51.285     753.882    1046.594
  H      -50.917     755.500    1047.225
  H      -51.669     755.309    1045.607
  P      -53.637     756.360    1047.408
  C      -55.528     754.663    1047.957
  O      -55.048     755.993    1048.105
  C      -56.605     754.367    1048.988
  O      -57.725     755.282    1048.858
  C      -57.235     752.980    1048.888
  O      -56.391     751.943    1049.346
  C      -58.442     753.177    1049.795
  O      -58.026     753.160    1051.165
  C      -58.905     754.596    1049.360
  N      -59.938     754.562    1048.323
  C      -61.221     754.157    1048.734
  O      -61.441     753.849    1049.919
  N      -62.234     754.093    1047.811
  C      -61.982     754.366    1046.562
  N      -63.010     754.272    1045.674
  C      -60.642     754.775    1046.077
  C      -59.681     754.842    1047.011
  O      -53.732     757.211    1046.182
  O      -52.861     757.065    1048.614
  H      -57.226     753.732    1051.225
  H      -53.268     757.956    1048.766
  H      -60.475     754.969    1045.029
  H      -58.673     755.131    1046.726
  H      -59.273     755.162    1050.217
  H      -59.205     752.391    1049.662
  H      -57.584     752.784    1047.861
  H      -56.164     754.542    1049.980
  H      -63.908     753.992    1046.035
  H      -54.685     753.979    1048.065
  H      -62.890     754.406    1044.682
  H      -55.960     754.534    1046.948
  P      -56.371     750.590    1048.476
  C      -53.832     750.448    1049.061
  O      -55.070     749.767    1048.934
  O      -56.008     751.095    1047.006
  O      -57.648     749.793    1048.511
  H      -56.818     751.191    1046.462
  H      -53.076     749.758    1049.372
  H      -53.926     751.226    1049.789
  H      -53.561     750.874    1048.118

 6  7  8  9  10  11  12  13  14  15  16  26  30  31  32  33  35 0
 6-311+G(2d,p)
 ****
 37  38 0
 6-311+G(2d,p)
 ****
 1  2  3  4  5  17  18  19  20  21  22  23  24  25 0
 3-21G
 ****
 27  28  29  34  36  39  40  41  42  43  44  45  46 0
 3-21G
 ****


