%nproc=1
%NoSave
%Mem=1900MB
#P OB98/GEN NMR

erre ene a

0 1
  C      -31.920     615.123     367.624
  O      -30.784     615.182     366.772
  P      -29.535     614.238     367.133
  C      -30.056     612.296     365.489
  O      -30.031     612.743     366.841
  C      -29.114     611.122     365.297
  O      -29.425     610.088     366.248
  C      -29.202     610.451     363.928
  O      -28.464     611.158     362.946
  C      -28.569     609.099     364.220
  O      -27.137     609.213     364.176
  C      -29.042     608.819     365.656
  N      -30.492     603.970     365.972
  C      -29.220     604.517     365.934
  N      -28.188     603.645     366.021
  N      -28.983     605.797     365.824
  C      -30.111     606.552     365.784
  C      -31.418     606.131     365.811
  C      -31.669     604.708     365.884
  O      -32.767     604.163     365.861
  N      -32.286     607.193     365.776
  C      -31.502     608.255     365.761
  N      -30.173     607.912     365.739
  O      -29.485     614.303     368.733
  O      -28.235     614.633     366.521
  H      -26.891     609.970     364.737
  H      -28.578     614.113     369.044
  H      -30.614     602.981     366.075
  H      -31.860     609.277     365.769
  H      -28.229     608.409     366.274
  H      -28.849     608.332     363.493
  H      -28.314     602.671     366.237
  H      -30.250     610.313     363.629
  H      -27.252     604.036     366.031
  H      -28.088     611.461     365.490
  H      -29.738     613.119     364.835
  H      -31.082     612.017     365.228
  P      -29.303     611.748     361.704
  C      -28.938     614.228     362.405
  O      -29.858     613.167     362.210
  O      -30.607     610.824     361.673
  O      -28.570     611.749     360.408
  H      -30.982     610.796     360.766
  H      -28.136     614.211     361.662
  H      -28.506     614.150     363.409
  H      -29.468     615.177     362.318
  H      -32.669     615.798     367.267
  H      -31.635     615.399     368.618
  H      -32.311     614.127     367.629

 3  4  5  6  7  8  9  10  11  12  23  26  30  31  33  0
 6-311+G(2d,p)
 ****
 35  36  37  38 0
 6-311+G(2d,p)
 ****
 1  2  13  14  15  16  17  18  19  20  21  22  24  25  27  28  29 0
 3-21G
 ****
 32  34  39  40  41  42  43  44  45  46  47  48  49 0
 3-21G
 ****


