%nproc=1
%NoSave
%Mem=1900MB
#P OB98/GEN NMR

erre ene a

0 1
  C       30.275      25.157     192.796
  O       29.518      25.351     193.992
  P       29.408      26.820     194.626
  C       30.238      25.942     196.914
  O       29.254      26.700     196.218
  C       29.618      25.295     198.156
  O       28.532      24.404     197.805
  C       30.605      24.416     198.922
  O       31.657      25.079     199.596
  C       29.680      23.544     199.755
  O       29.265      24.208     200.948
  C       28.483      23.357     198.795
  N       28.465      22.031     198.167
  C       27.547      21.119     198.684
  O       26.812      21.374     199.636
  N       27.527      19.888     198.088
  C       28.344      19.478     197.069
  O       28.296      18.352     196.587
  C       29.307      20.476     196.580
  C       29.325      21.686     197.145
  O       28.441      27.741     193.962
  O       30.908      27.382     194.469
  H       28.605      23.633     201.385
  H       30.847      28.318     194.200
  H       26.864      19.219     198.441
  H       29.974      20.183     195.779
  H       30.029      22.436     196.797
  H       27.535      23.478     199.334
  H       30.171      22.614     200.062
  H       31.094      23.753     198.196
  H       29.208      26.080     198.791
  H       31.071      26.589     197.200
  H       30.655      25.188     196.238
  P       33.181      24.589     199.540
  C       33.271      24.710     202.129
  O       33.902      25.023     200.906
  O       33.929      24.825     198.268
  O       33.017      23.005     199.746
  H       33.719      22.552     199.240
  H       33.892      25.092     202.949
  H       33.172      23.629     202.241
  H       32.288      25.188     202.185
  H       30.242      24.125     192.516
  H       31.291      25.448     192.966
  H       29.860      25.753     192.010

 3  4  5  6  7  8  9  10  11  12  13  23  28  29  30  31  32 0
 6-311+G(2d,p)
 ****
 33  34 0
 6-311+G(2d,p)
 ****
 1  2  14  15  16  17  18  19  20  21  22  24  25  26  27 0
 3-21G
 ****
 35  36  37  38  39  40  41  42  43  44  45 0
 3-21G
 ****


