%nproc=1
%NoSave
%Mem=1900MB
#P OB98/GEN NMR

erre ene a

0 1
  C     1167.273    -898.240     767.219
  O     1167.087    -897.800     765.897
  H     1167.827    -897.470     767.771
  H     1167.861    -899.150     767.242
  H     1166.317    -898.390     767.713
  P     1166.337    -898.760     764.865
  C     1163.882    -898.020     765.188
  O     1164.883    -899.010     765.496
  C     1163.428    -897.280     766.427
  O     1164.552    -896.600     767.031
  C     1162.346    -896.210     766.137
  O     1161.292    -896.350     767.105
  C     1163.090    -894.900     766.367
  O     1162.211    -893.830     766.702
  C     1164.099    -895.310     767.453
  N     1165.171    -894.340     767.567
  C     1166.224    -894.700     768.420
  O     1166.210    -895.790     769.027
  N     1167.255    -893.820     768.600
  C     1167.200    -892.670     768.020
  N     1168.262    -891.810     768.267
  C     1166.130    -892.240     767.151
  C     1165.141    -893.110     766.956
  O     1167.081    -900.000     764.490
  O     1166.004    -897.830     763.588
  H     1161.867    -893.970     767.619
  H     1165.869    -898.400     762.801
  H     1166.117    -891.240     766.686
  H     1164.283    -892.890     766.293
  H     1163.600    -895.430     768.436
  H     1163.619    -894.620     765.442
  H     1161.926    -896.280     765.135
  H     1163.065    -898.010     767.156
  H     1168.985    -892.160     768.899
  H     1163.043    -898.530     764.678
  H     1168.324    -890.880     767.910
  H     1164.336    -897.320     764.475
  P     1160.824    -897.850     767.427
  C     1161.293    -898.190     769.962
  O     1161.731    -898.390     768.620
  O     1161.314    -898.670     766.146
  O     1159.345    -897.960     767.646
  H     1160.520    -898.950     765.622
  H     1162.010    -898.608     770.637
  H     1160.347    -898.670     770.104
  H     1161.193    -897.142     770.152

 6  7  8  9  10  11  12  13  14  15  16  26  30  31  32  33  35 0
 6-311+G(2d,p)
 ****
 37  38 0
 6-311+G(2d,p)
 ****
 1  2  3  4  5  17  18  19  20  21  22  23  24  25 0
 3-21G
 ****
 27  28  29  34  36  39  40  41  42  43  44  45  46 0
 3-21G
 ****


