%nproc=1
%NoSave
%Mem=1900MB
#P OB98/GEN NMR

erre ene a

0 1
  C      251.844     115.181      82.989
  O      251.805     113.871      83.529
  P      253.186     113.256      84.072
  C      253.752     112.274      81.727
  O      254.157     113.105      82.806
  C      254.747     112.379      80.575
  O      254.786     113.731      80.072
  C      256.186     112.046      80.951
  O      256.371     110.646      81.083
  C      256.935     112.681      79.784
  O      256.865     111.826      78.632
  C      256.118     113.962      79.543
  N      260.301     116.891      79.953
  C      260.052     115.766      79.240
  N      258.922     115.034      79.201
  C      257.978     115.571      79.994
  C      258.093     116.696      80.793
  C      259.322     117.376      80.750
  N      259.571     118.519      81.479
  N      256.926     116.927      81.487
  C      256.112     115.961      81.104
  N      256.698     115.125      80.194
  O      252.799     111.746      84.423
  O      253.774     113.974      85.248
  H      257.451     112.210      77.950
  H      253.303     111.426      85.198
  H      260.871     115.412      78.620
  H      255.098     115.833      81.452
  H      256.014     114.198      78.478
  H      257.993     112.860      79.999
  H      256.463     112.545      81.889
  H      254.403     111.720      79.768
  H      252.767     112.595      81.371
  H      260.524     118.856      81.506
  H      258.893     118.797      82.180
  H      253.671     111.244      82.084
  P      257.633     110.151      81.942
  C      258.916     109.513      79.807
  O      258.879     110.356      80.945
  O      257.432     108.562      81.923
  O      257.766     110.774      83.289
  H      257.257     108.226      81.027
  H      259.778     109.792      79.195
  H      258.005     109.630      79.217
  H      259.030     108.470      80.117
  H      250.863     115.464      82.668
  H      252.513     115.203      82.154
  H      252.185     115.865      83.737

 3  4  5  6  7  8  9  10  11  12  22  25  29  30  31  32 0
 6-311+G(2d,p)
 ****
 33  36  37 0
 6-311+G(2d,p)
 ****
 1  2  13  14  15  16  17  18  19  20  21  23  24  26 0
 3-21G
 ****
 27  28  34  35  38  39  40  41  42  43  44  45  46  47  48 0
 3-21G
 ****


