%nproc=1
%NoSave
%Mem=1900MB
#P OB98/GEN NMR

erre ene a

0 1
  C      127.007     -50.810     153.993
  O      126.545     -51.396     152.792
  H      126.416     -51.200     154.825
  H      126.887     -49.724     153.949
  H      128.059     -51.061     154.157
  P      127.318     -50.979     151.450
  C      126.004     -52.622     149.909
  O      126.298     -51.275     150.246
  C      124.731     -52.689     149.057
  O      123.588     -52.354     149.900
  C      124.724     -51.698     147.880
  O      123.943     -52.262     146.812
  C      123.979     -50.516     148.474
  O      123.534     -49.651     147.457
  C      122.904     -51.258     149.260
  N      119.940     -47.158     149.899
  C      120.366     -47.799     148.790
  N      121.148     -48.894     148.703
  C      121.473     -49.341     149.929
  C      121.118     -48.793     151.149
  C      120.317     -47.640     151.108
  N      119.899     -46.968     152.234
  N      121.669     -49.522     152.188
  C      122.338     -50.496     151.601
  N      122.244     -50.426     150.239
  O      128.428     -52.123     151.297
  O      127.916     -49.614     151.446
  H      122.881     -50.095     146.878
  H      129.259     -51.838     151.719
  H      120.033     -47.376     147.844
  H      122.908     -51.263     152.109
  H      122.128     -51.679     148.608
  H      124.626     -49.937     149.140
  H      125.725     -51.454     147.513
  H      124.580     -53.719     148.713
  H      125.865     -53.191     150.834
  H      126.840     -53.047     149.346
  H      119.349     -46.133     152.115
  H      120.200     -47.295     153.141
  P      124.657     -52.590     145.411
  C      122.978     -54.434     144.639
  O      123.594     -53.184     144.366
  O      125.530     -53.885     145.778
  O      125.539     -51.512     144.873
  H      126.431     -53.788     145.416
  H      122.302     -54.679     143.846
  H      122.439     -54.372     145.561
  H      123.729     -55.193     144.715

 6  7  8  9  10  11  12  13  14  15  25  28  32  33  34  35 0
 6-311+G(2d,p)
 ****
 36  37  40 0
 6-311+G(2d,p)
 ****
 1  2  3  4  5  16  17  18  19  20  21  22  23  24 0
 3-21G
 ****
 26  27  29  30  31  38  39 41  42  43  44  45  46  47  48 0
 3-21G
 ****


