%nproc=1
%NoSave
%Mem=1900MB
#P OB98/GEN NMR

erre ene a

0 1
  C      631.800    -362.177    -314.208
  O      632.945    -361.705    -313.536
  P      633.092    -360.191    -313.010
  C      635.019    -358.944    -314.242
  O      633.632    -359.287    -314.223
  C      635.934    -360.168    -314.351
  O      635.579    -360.940    -315.516
  C      637.387    -359.718    -314.548
  O      638.189    -359.369    -313.446
  C      637.995    -360.782    -315.475
  O      638.752    -361.758    -314.772
  C      636.776    -361.418    -316.143
  N      638.986    -362.013    -320.667
  C      639.246    -362.679    -319.482
  N      640.360    -363.451    -319.463
  N      638.499    -362.558    -318.411
  C      637.479    -361.679    -318.569
  C      637.112    -360.987    -319.686
  C      637.924    -361.152    -320.870
  O      637.785    -360.525    -321.916
  N      636.072    -360.131    -319.446
  C      635.822    -360.272    -318.159
  N      636.687    -361.168    -317.574
  O      633.687    -360.017    -311.651
  O      631.541    -359.739    -312.917
  H      638.961    -362.496    -315.384
  H      631.459    -359.147    -312.156
  H      639.648    -362.089    -321.435
  H      635.078    -359.721    -317.602
  H      636.787    -362.511    -316.012
  H      638.692    -360.314    -316.184
  H      641.029    -363.448    -320.210
  H      637.356    -358.807    -315.158
  H      640.664    -363.818    -318.563
  H      635.799    -360.851    -313.495
  H      635.224    -358.385    -313.312
  H      635.216    -358.273    -315.069
  P      639.414    -358.346    -313.448
  C      641.736    -359.286    -312.907
  O      640.738    -359.128    -313.903
  O      639.683    -358.036    -311.898
  O      639.161    -357.066    -314.177
  H      640.158    -357.186    -311.795
  H      642.672    -359.560    -313.384
  H      641.434    -360.088    -312.217
  H      641.867    -358.358    -312.332
  H      631.933    -363.209    -314.458
  H      631.652    -361.609    -315.103
  H      630.945    -362.072    -313.573

 3  4  5  6  7  8  9  10  11  12  23  26  30  31 0
 6-311+G(2d,p)
 ****
 33  35  36  37  38 0
 6-311+G(2d,p)
 ****
 1  2  13  14  15  16  17  18  19  20  21  22  24  25 0
 3-21G
 ****
 27  28  29  32  34  39  40  41  42  43  44  45  46  47  48  49 0
 3-21G
 ****


