%nproc=1
%NoSave
%Mem=1900MB
#P OB98/GEN NMR

erre ene a

0 1
  C     -194.463     133.438      76.035
  O     -195.332     134.506      76.451
  P     -196.448     134.214      77.567
  C     -198.600     134.757      76.194
  O     -197.831     133.780      76.878
  C     -200.099     134.586      76.478
  O     -200.607     133.400      75.801
  C     -200.450     134.440      77.964
  O     -201.739     135.041      78.156
  C     -200.549     132.934      78.131
  O     -201.285     132.543      79.281
  C     -201.213     132.557      76.804
  N     -201.081     131.145      76.445
  C     -201.825     130.217      77.166
  O     -202.541     130.494      78.124
  N     -201.698     128.910      76.764
  C     -200.890     128.448      75.766
  O     -200.799     127.262      75.476
  C     -200.106     129.470      75.059
  C     -200.236     130.747      75.425
  O     -196.783     135.690      78.099
  O     -196.008     133.349      78.703
  H     -201.334     131.570      79.279
  H     -196.810     135.691      79.073
  H     -202.241     128.226      77.266
  H     -199.457     129.146      74.257
  H     -199.676     131.520      74.907
  H     -202.276     132.823      76.838
  H     -199.542     132.513      78.221
  H     -199.714     134.903      78.629
  H     -200.627     135.444      76.044
  H     -198.429     134.659      75.117
  H     -198.268     135.754      76.503
  P     -201.813     136.627      78.413
  C     -202.973     136.404      80.748
  O     -201.863     136.847      79.997
  O     -203.323     136.919      77.953
  O     -200.802     137.424      77.658
  H     -203.954     136.271      78.303
  H     -203.318     135.424      80.408
  H     -203.786     137.127      80.660
  H     -202.679     136.327      81.796
  H     -193.784     133.800      75.291
  H     -195.048     132.641      75.626
  H     -193.911     133.079      76.878

 3  4  5  6  7  8  9  10  11  12  13  23  28  29  30  31  32 0
 6-311+G(2d,p)
 ****
 33  34 0
 6-311+G(2d,p)
 ****
 1  2  14  15  16  17  18  19  20  21  22  24  25  26 0
 3-21G
 ****
 27  35  36  37  38  39  40  41  42  43  44  45 0
 3-21G
 ****


