%nproc=1
%NoSave
%Mem=1900MB
#P OB98/GEN NMR

erre ene a

0 1
  C      597.237     545.677     688.849
  O      598.283     546.229     689.625
  H      597.561     544.721     688.421
  H      596.371     545.495     689.497
  H      596.938     546.363     688.058
  P      599.534     546.849     688.844
  C      600.584     544.472     688.842
  O      600.776     545.858     689.103
  C      601.918     543.722     688.947
  O      602.780     544.169     687.848
  C      602.681     543.953     690.270
  O      603.285     542.712     690.654
  C      603.762     544.939     689.882
  O      604.910     544.863     690.724
  C      604.051     544.517     688.440
  N      608.504     546.836     687.617
  C      608.199     545.650     688.175
  N      606.983     545.081     688.302
  C      606.036     545.842     687.738
  C      606.191     547.071     687.127
  C      607.498     547.592     687.095
  N      607.812     548.832     686.598
  N      604.969     547.575     686.700
  C      604.076     546.654     687.079
  N      604.681     545.596     687.708
  O      599.888     548.137     689.731
  O      599.286     547.205     687.409
  H      605.515     545.590     690.492
  H      599.363     548.894     689.424
  H      609.037     545.082     688.568
  H      603.017     546.740     686.955
  H      604.708     543.646     688.372
  H      603.361     545.959     689.910
  H      602.038     544.320     691.087
  H      601.727     542.660     688.790
  H      600.173     544.358     687.839
  H      608.766     549.157     686.714
  H      607.062     549.442     686.305
  H      599.868     544.066     689.571
  P      602.314     541.513     691.103
  C      602.859     541.501     693.655
  O      602.929     540.812     692.403
  O      602.521     540.420     689.951
  O      600.869     541.923     691.222
  H      601.697     539.929     689.794
  H      603.311     540.902     694.418
  H      601.835     541.683     693.905
  H      603.379     542.433     693.579

 6  7  8  9  10  11  12  13  14  15  25  28  32  33  34  35 0
 6-311+G(2d,p)
 ****
 36  39  40 0
 6-311+G(2d,p)
 ****
 1  2  3  4  5  16  17  18  19  20  21  22  23  24 0
 3-21G
 ****
 26  27  29  30  31  37  38  41  42  43  44  45  46  47 0
 3-21G
 ****
 48 0
 3-21G
 ****


