%nproc=1
%NoSave
%Mem=1900MB
#P OB98/GEN NMR

erre ene a

0 1
  C       54.435     250.926      81.207
  O       53.062     250.764      80.915
  H       54.571     250.886      82.291
  H       54.784     251.897      80.845
  H       55.020     250.126      80.747
  P       52.650     250.750      79.365
  C       51.744     253.184      79.518
  O       52.648     252.283      78.887
  C       51.093     254.082      78.468
  O       52.041     255.088      78.042
  C       50.669     253.352      77.198
  O       49.444     252.659      77.367
  C       50.583     254.507      76.209
  O       49.326     255.190      76.304
  C       51.717     255.431      76.677
  N       53.768     256.773      72.208
  C       52.595     257.095      72.798
  N       52.130     256.708      74.004
  C       53.022     255.912      74.619
  C       54.251     255.491      74.140
  C       54.624     255.960      72.870
  N       55.798     255.602      72.254
  N       54.856     254.640      75.045
  C       54.013     254.559      76.052
  N       52.895     255.312      75.842
  O       51.096     250.365      79.410
  O       53.435     249.816      78.506
  H       48.634     254.504      76.284
  H       50.995     249.402      79.287
  H       51.942     257.749      72.222
  H       54.163     253.961      76.947
  H       51.420     256.486      76.671
  H       50.686     254.157      75.181
  H       51.461     252.665      76.873
  H       50.238     254.591      78.928
  H       52.294     253.806      80.232
  H       50.986     252.606      80.056
  H       55.992     255.958      71.333
  H       56.394     254.910      72.695
  P       49.261     251.243      76.645
  C       48.408     252.068      74.333
  O       49.462     251.470      75.069
  O       47.692     250.955      76.791
  O       50.086     250.139      77.221
  H       47.527     250.334      77.527
  H       48.693     252.150      73.305
  H       48.206     253.042      74.726
  H       47.529     251.463      74.412

 6  7  8  9  10  11  12  13  14  15  25  28  32  33  34  35 0
 6-311+G(2d,p)
 ****
 36  37  40 0
 6-311+G(2d,p)
 ****
 1  2  3  4  5  16  17  18  19  20  21  22  23  24 0
 3-21G
 ****
 26  27  29  30  31  38  39 41  42  43  44  45  46  47  48 0
 3-21G
 ****


