%nproc=1
%NoSave
%Mem=1900MB
#P OB98/GEN NMR

erre ene a

0 1
  C     -778.294     251.430     -67.819
  O     -777.223     251.950     -68.588
  P     -775.737     251.799     -67.996
  C     -775.112     250.232     -69.974
  O     -775.148     250.412     -68.564
  C     -774.005     249.249     -70.366
  O     -772.755     249.688     -69.762
  C     -774.249     247.802     -69.918
  O     -773.697     246.957     -70.933
  C     -773.436     247.729     -68.638
  O     -773.166     246.405     -68.201
  C     -772.229     248.557     -69.032
  N     -768.148     247.571     -66.109
  C     -768.617     246.977     -67.220
  N     -769.706     247.298     -67.952
  C     -770.334     248.369     -67.431
  C     -769.977     249.072     -66.289
  C     -768.824     248.631     -65.612
  N     -768.353     249.244     -64.464
  N     -770.872     250.098     -66.053
  C     -771.749     250.015     -67.028
  N     -771.451     248.998     -67.893
  O     -775.991     251.477     -66.453
  O     -774.858     252.995     -68.184
  H     -772.611     245.936     -68.858
  H     -775.336     251.921     -65.884
  H     -768.050     246.123     -67.579
  H     -772.618     250.645     -67.140
  H     -771.550     248.008     -69.707
  H     -773.998     248.219     -67.831
  H     -775.313     247.557     -69.793
  H     -773.872     249.289     -71.455
  H     -774.903     251.191     -70.460
  H     -767.650     248.740     -63.947
  H     -768.975     249.889     -63.997
  H     -776.089     249.883     -70.320
  P     -774.242     245.456     -71.076
  C     -775.344     246.165     -73.284
  O     -775.551     245.601     -72.006
  O     -774.901     245.227     -69.627
  O     -773.239     244.431     -71.463
  H     -775.504     245.956     -69.398
  H     -776.286     246.122     -73.839
  H     -774.582     245.603     -73.834
  H     -775.045     247.214     -73.192
  H     -779.217     251.600     -68.332
  H     -778.320     251.918     -66.867
  H     -778.154     250.379     -67.677

 3  4  5  6  7  8  9  10  11  12  22  25  29  30  31  32 0
 6-311+G(2d,p)
 ****
 33  36  37 0
 6-311+G(2d,p)
 ****
 1  2  13  14  15  16  17  18  19  20  21  23  24  26 0
 3-21G
 ****
 27  28  34  35  38  39  40  41  42  43  44  45  46  47  48 0
 3-21G
 ****


