%nproc=1
%NoSave
%Mem=1900MB
#P OB98/GEN NMR

erre ene a

0 1
  C     -327.058    -896.580     860.187
  O     -327.640    -895.640     859.286
  P     -328.648    -896.020     858.108
  C     -330.729    -895.280     859.534
  O     -330.094    -896.280     858.745
  C     -332.261    -895.440     859.588
  O     -332.828    -895.120     858.299
  C     -332.648    -896.880     859.895
  O     -332.660    -897.360     861.227
  C     -333.950    -897.100     859.139
  O     -335.098    -896.880     859.961
  C     -333.879    -896.050     858.022
  N     -335.997    -898.470     854.030
  C     -336.570    -898.110     855.235
  N     -337.851    -898.470     855.434
  N     -335.929    -897.450     856.176
  C     -334.627    -897.230     855.888
  C     -333.938    -897.550     854.738
  C     -334.668    -898.220     853.676
  O     -334.212    -898.560     852.596
  N     -332.617    -897.190     854.813
  C     -332.503    -896.660     856.018
  N     -333.707    -896.650     856.709
  O     -328.149    -897.020     857.127
  O     -328.839    -894.610     857.320
  H     -335.120    -895.940     860.197
  H     -328.971    -894.850     856.372
  H     -336.543    -898.940     853.329
  H     -331.590    -896.250     856.432
  H     -334.814    -895.480     857.964
  H     -334.022    -898.130     858.774
  H     -338.359    -899.080     854.807
  H     -331.905    -897.530     859.378
  H     -338.212    -898.410     856.386
  H     -332.690    -894.720     860.302
  H     -330.456    -894.320     859.100
  H     -330.313    -895.290     860.555
  P     -332.004    -898.720     861.754
  C     -331.750    -897.460     863.973
  O     -331.166    -898.390     863.078
  O     -330.868    -899.050     860.675
  O     -332.962    -899.870     861.891
  H     -330.590    -900.000     860.763
  H     -330.973    -897.090     864.645
  H     -332.524    -897.960     864.549
  H     -332.192    -896.620     863.428
  H     -326.422    -896.066     860.877
  H     -326.482    -897.293     859.635
  H     -327.833    -897.086     860.724

 3  4  5  6  7  8  9  10  11  12  23  26  30  31 0
 6-311+G(2d,p)
 ****
 33  35  36  37  38 0
 6-311+G(2d,p)
 ****
 1  2  13  14  15  16  17  18  19  20  21  22  24  25 0
 3-21G
 ****
 27  28  29  32  34  39  40  41  42  43  44  45  46  47  48  49 0
 3-21G
 ****


