%nproc=1
%NoSave
%Mem=1900MB
#P OB98/GEN NMR

erre ene a

0 1
  C      -16.434    -422.510     424.414
  O      -16.411    -423.390     423.303
  P      -17.537    -424.535     423.231
  C      -18.012    -426.360     425.026
  O      -17.047    -425.711     424.207
  C      -17.325    -427.336     425.975
  O      -16.551    -426.632     426.967
  C      -18.284    -428.218     426.769
  O      -18.750    -429.327     426.014
  C      -17.384    -428.684     427.898
  O      -16.548    -429.768     427.450
  C      -16.538    -427.436     428.171
  N      -16.579    -426.944     433.211
  C      -15.799    -427.749     432.408
  N      -14.946    -428.588     433.044
  N      -15.841    -427.740     431.103
  C      -16.744    -426.856     430.606
  C      -17.571    -426.002     431.300
  C      -17.525    -426.040     432.745
  O      -18.232    -425.386     433.509
  N      -18.344    -425.253     430.447
  C      -17.983    -425.648     429.243
  N      -17.046    -426.650     429.285
  O      -17.339    -425.159     421.772
  O      -18.928    -424.051     423.455
  H      -16.070    -429.445     426.661
  H      -18.131    -425.671     421.516
  H      -16.515    -426.996     434.213
  H      -18.382    -425.253     428.319
  H      -15.493    -427.687     428.390
  H      -17.946    -429.052     428.764
  H      -14.909    -428.689     434.047
  H      -19.115    -427.628     427.180
  H      -14.404    -429.235     432.481
  H      -16.635    -427.955     425.385
  H      -18.719    -426.897     424.391
  H      -18.561    -425.606     425.594
  P      -20.142    -429.979     426.471
  C      -21.121    -430.633     428.790
  O      -19.969    -430.305     428.027
  O      -20.118    -431.416     425.768
  O      -21.349    -429.182     426.090
  H      -21.023    -431.736     425.614
  H      -20.802    -431.082     429.735
  H      -21.750    -431.356     428.260
  H      -21.692    -429.730     429.002
  H      -15.633    -421.806     424.328
  H      -16.320    -423.073     425.317
  H      -17.367    -421.987     424.435

 3  4  5  6  7  8  9  10  11  12  23  26  30  31 0
 6-311+G(2d,p)
 ****
 33  35  36  37  38 0
 6-311+G(2d,p)
 ****
 1  2  13  14  15  16  17  18  19  20  21  22  24  25 0
 3-21G
 ****
 27  28  29  32  34  39  40  41  42  43  44  45  46  47  48  49 0
 3-21G
 ****


