%nproc=1
%NoSave
%Mem=1900MB
#P OB98/GEN NMR

erre ene a

0 1
  C       14.223     -54.756     117.394
  O       12.928     -55.282     117.572
  P       12.520     -56.779     117.210
  C       12.583     -58.285     115.074
  O       12.649     -56.976     115.625
  C       13.036     -58.290     113.606
  O       14.436     -57.914     113.555
  C       12.926     -59.691     112.984
  O       12.421     -59.699     111.656
  C       14.317     -60.271     113.206
  O       14.623     -61.360     112.348
  C       15.196     -59.033     113.053
  N       20.251     -58.690     112.673
  C       19.284     -58.318     111.761
  N       19.726     -57.985     110.529
  N       18.003     -58.313     112.028
  C       17.705     -58.779     113.263
  C       18.577     -59.172     114.252
  C       19.989     -59.143     113.956
  O       20.876     -59.571     114.694
  N       17.916     -59.651     115.353
  C       16.643     -59.580     115.019
  N       16.467     -59.088     113.746
  O       11.308     -57.327     117.890
  O       13.800     -57.604     117.754
  H       15.512     -61.681     112.585
  H       13.468     -58.464     118.081
  H       21.220     -58.751     112.381
  H       15.814     -59.896     115.642
  H       15.431     -58.836     112.007
  H       14.355     -60.654     114.232
  H       20.689     -58.122     110.253
  H       12.198     -60.298     113.534
  H       19.036     -57.954     109.784
  H       12.466     -57.537     113.051
  H       11.535     -58.597     115.145
  H       13.182     -58.982     115.665
  P       12.112     -60.947     110.710
  C       13.416     -62.651     109.304
  O       13.501     -61.566     110.208
  O       11.502     -60.314     109.373
  O       11.162     -61.947     111.285
  H       10.774     -60.877     109.046
  H       14.389     -63.147     109.259
  H       13.161     -62.280     108.308
  H       12.663     -63.373     109.633
  H       14.239     -53.734     117.711
  H       14.492     -54.813     116.360
  H       14.921     -55.321     117.976

 3  4  5  6  7  8  9  10  11  12  23  26  30  31 0
 6-311+G(2d,p)
 ****
 33  35  36  37  38 0
 6-311+G(2d,p)
 ****
 1  2  13  14  15  16  17  18  19  20  21  22  24  25 0
 3-21G
 ****
 27  28  29  32  34  39  40  41  42  43  44  45  46  47  48  49 0
 3-21G
 ****


