%nproc=1
%NoSave
%Mem=1900MB
#P OB98/GEN NMR

erre ene a

0 1
  C      -89.686    -114.205      13.925
  O      -88.303    -113.951      13.776
  H      -90.051    -113.655      14.796
  H      -89.865    -115.271      14.086
  H      -90.235    -113.866      13.043
  P      -87.530    -114.653      12.562
  C      -88.477    -113.235      10.624
  O      -88.484    -114.494      11.283
  C      -88.299    -113.431       9.123
  O      -86.966    -113.892       8.831
  C      -89.257    -114.454       8.514
  O      -90.526    -113.866       8.279
  C      -88.511    -114.801       7.236
  O      -88.683    -113.745       6.271
  C      -87.054    -114.838       7.729
  N      -85.957    -119.604       6.400
  C      -86.451    -118.562       5.639
  N      -86.733    -118.846       4.349
  N      -86.668    -117.360       6.105
  C      -86.407    -117.246       7.427
  C      -85.932    -118.207       8.288
  C      -85.642    -119.518       7.748
  O      -85.187    -120.465       8.384
  N      -85.853    -117.737       9.574
  C      -86.244    -116.482       9.483
  N      -86.606    -116.138       8.202
  O      -87.065    -116.059      12.795
  O      -86.318    -113.662      12.245
  H      -89.609    -113.794       5.969
  H      -85.515    -113.918      12.735
  H      -85.829    -120.513       5.986
  H      -86.282    -115.781      10.308
  H      -86.346    -114.513       6.959
  H      -88.857    -115.724       6.774
  H      -86.855    -119.798       4.026
  H      -89.330    -115.356       9.129
  H      -87.143    -118.111       3.789
  H      -88.413    -112.452       8.641
  H      -87.647    -112.651      11.036
  H      -89.412    -112.699      10.817
  P      -91.823    -114.776       8.017
  C      -92.583    -114.212      10.421
  O      -92.308    -115.234       9.474
  O      -91.621    -115.890       7.048
  O      -92.958    -113.741       7.584
  H      -92.981    -113.563       6.612
  H      -92.895    -114.655      11.344
  H      -93.362    -113.580      10.048
  H      -91.700    -113.631      10.585

 6  7  8  9  10  11  12  13  14  15  26  29  33  34 0
 6-311+G(2d,p)
 ****
 36  38  39  40  41 0
 6-311+G(2d,p)
 ****
 1  2  3  4  5  16  17  18  19  20  21  22  23  24  25 0
 3-21G
 ****
 27  28  30  31  32  35  37  42  43  44  45  46  47 0
 3-21G
 ****
 48  49 0
 3-21G
 ****


