%nproc=1
%NoSave
%Mem=1900MB
#P OB98/GEN NMR

erre ene a

0 1
  C     -516.220     189.175      32.649
  O     -516.141     187.758      32.611
  P     -514.819     186.982      33.082
  C     -515.363     187.531      35.529
  O     -514.375     187.581      34.503
  C     -515.133     186.346      36.471
  O     -513.751     186.366      36.942
  C     -516.041     186.344      37.713
  O     -516.388     184.971      37.969
  C     -515.146     186.880      38.806
  O     -515.584     186.504      40.106
  C     -513.797     186.293      38.383
  N     -512.668     187.001      38.981
  C     -511.435     186.340      38.984
  O     -511.356     185.166      38.610
  N     -510.320     187.022      39.410
  C     -510.466     188.190      39.971
  N     -509.334     188.863      40.326
  C     -511.786     188.813      40.215
  C     -512.826     188.187      39.659
  O     -513.730     186.921      32.064
  O     -515.338     185.511      33.452
  H     -514.800     184.850      32.969
  H     -516.504     186.824      40.236
  H     -511.868     189.717      40.794
  H     -513.837     188.575      39.763
  H     -513.727     185.234      38.654
  H     -515.121     187.978      38.759
  H     -516.966     186.923      37.562
  H     -515.264     185.416      35.898
  H     -508.443     188.427      40.107
  H     -516.343     187.422      35.053
  H     -509.327     189.876      40.466
  H     -515.366     188.470      36.087
  P     -517.767     184.664      38.747
  C     -519.013     184.693      36.469
  O     -518.980     185.135      37.810
  O     -517.749     185.811      39.878
  O     -517.889     183.325      39.395
  H     -518.293     185.515      40.643
  H     -519.862     185.167      35.961
  H     -519.135     183.602      36.432
  H     -518.089     184.972      35.946
  H     -517.180     189.488      32.295
  H     -515.457     189.592      32.026
  H     -516.083     189.513      33.655

 3  4  5  6  7  8  9  10  11  12  13  24  27  28  29  30  32 0
 6-311+G(2d,p)
 ****
 34  35 0
 6-311+G(2d,p)
 ****
 1  2  14  15  16  17  18  19  20  21  22  23  25  26 0
 3-21G
 ****
 31  33  36  37  38  39  40  41  42  43  44  45  46 0
 3-21G
 ****


