%nproc=1
%NoSave
%Mem=1900MB
#P OB98/GEN NMR

erre ene a

0 1
  C       -6.029    -566.992      93.419
  O       -4.941    -566.696      94.259
  P       -4.404    -567.763      95.342
  C       -2.608    -568.615      93.699
  O       -2.861    -567.994      94.951
  C       -1.121    -568.653      93.409
  O       -0.692    -567.324      93.030
  C       -0.224    -569.041      94.584
  O       -0.076    -570.463      94.770
  C        1.109    -568.460      94.138
  O        1.722    -569.329      93.166
  C        0.673    -567.141      93.481
  N        3.704    -563.466      95.351
  C        3.911    -564.425      94.411
  N        3.060    -565.373      93.979
  C        1.874    -565.272      94.598
  C        1.508    -564.322      95.562
  C        2.485    -563.404      95.945
  N        2.266    -562.416      96.876
  N        0.199    -564.537      95.954
  C       -0.213    -565.551      95.240
  N        0.755    -566.026      94.382
  O       -5.236    -568.992      95.455
  O       -4.319    -566.936      96.695
  H        2.002    -570.133      93.646
  H       -4.256    -567.544      97.458
  H        4.888    -564.433      93.948
  H       -1.201    -565.991      95.293
  H        1.274    -566.904      92.589
  H        1.821    -568.358      94.964
  H       -0.539    -568.555      95.519
  H       -0.948    -569.326      92.547
  H       -3.117    -568.038      92.918
  H        2.994    -561.698      96.994
  H        1.322    -562.257      97.192
  H       -3.042    -569.623      93.700
  P       -0.190    -571.003      96.274
  C       -2.759    -571.073      96.818
  O       -1.615    -571.749      96.348
  O        0.036    -569.978      97.337
  O        0.858    -572.211      96.298
  H        0.633    -572.982      95.739
  H       -3.627    -571.692      96.625
  H       -2.896    -570.125      96.295
  H       -2.681    -570.897      97.896
  H       -6.223    -566.157      92.779
  H       -6.895    -567.194      94.015
  H       -5.797    -567.850      92.824

 3  4  5  6  7  8  9  10  11  12  22  25  29  30  31  32 0
 6-311+G(2d,p)
 ****
 33  36  37 0
 6-311+G(2d,p)
 ****
 1  2  13  14  15  16  17  18  19  20  21  23  24  26 0
 3-21G
 ****
 27  28  34  35  38  39  40  41  42  43  44  45  46  47  48 0
 3-21G
 ****


