%nproc=1
%NoSave
%Mem=1900MB
#P OB98/GEN NMR

erre ene a

0 1
  C       63.267     161.531    -236.253
  O       62.223     161.941    -235.394
  H       64.210     161.568    -235.703
  H       63.332     162.207    -237.108
  H       63.101     160.506    -236.601
  P       60.720     161.743    -235.916
  C       60.164     159.204    -235.891
  O       60.151     160.433    -235.180
  C       58.946     158.366    -235.503
  O       58.850     157.237    -236.419
  C       59.005     157.797    -234.079
  O       57.681     157.794    -233.537
  C       59.454     156.364    -234.302
  O       59.102     155.480    -233.246
  C       58.745     156.041    -235.621
  N       59.337     154.895    -236.310
  C       58.511     153.806    -236.564
  O       57.306     153.769    -236.328
  N       59.130     152.713    -237.120
  C       60.456     152.601    -237.413
  O       60.951     151.589    -237.893
  C       61.278     153.782    -237.116
  C       60.691     154.857    -236.584
  O       60.926     161.260    -237.427
  O       59.841     162.944    -235.812
  H       60.956     162.026    -238.030
  H       59.636     155.729    -232.466
  H       58.545     151.915    -237.309
  H       62.337     153.725    -237.325
  H       61.272     155.737    -236.331
  H       57.680     155.856    -235.445
  H       60.542     156.329    -234.424
  H       59.679     158.339    -233.409
  H       58.042     158.970    -235.646
  H       61.071     158.647    -235.639
  H       60.159     159.409    -236.966
  P       57.262     159.036    -232.611
  C       56.596     160.603    -234.604
  O       56.185     159.865    -233.463
  O       58.588     159.928    -232.671
  O       56.835     158.627    -231.243
  H       59.034     159.887    -233.536
  H       55.747     161.087    -235.040
  H       57.035     159.939    -235.319
  H       57.316     161.339    -234.312

 6  7  8  9  10  11  12  13  14  15  16  27  31  32  33  34  35 0
 6-311+G(2d,p)
 ****
 36  37 0
 6-311+G(2d,p)
 ****
 1  2  3  4  5  17  18  19  20  21  22  23  24  25 0
 3-21G
 ****
 26  28  29  30  38  39  40  41  42  43  44  45 0
 3-21G
 ****


