%nproc=1
%NoSave
%Mem=1900MB
#P OB98/GEN NMR

erre ene a

0 1
  C      -59.979     -71.758     -15.866
  O      -61.223     -71.135     -16.108
  H      -60.111     -72.508     -15.082
  H      -59.239     -71.027     -15.531
  H      -59.623     -72.259     -16.771
  P      -61.275     -69.911     -17.141
  C      -62.932     -71.025     -18.783
  O      -62.708     -69.974     -17.856
  C      -64.426     -71.164     -19.100
  O      -65.065     -71.918     -18.030
  C      -65.164     -69.820     -19.213
  O      -66.243     -70.001     -20.139
  C      -65.691     -69.649     -17.803
  O      -66.677     -68.649     -17.738
  C      -66.115     -71.086     -17.489
  N      -66.314     -71.314     -16.067
  C      -67.574     -70.986     -15.559
  O      -68.440     -70.520     -16.300
  N      -67.812     -71.164     -14.221
  C      -66.856     -71.568     -13.445
  N      -67.153     -71.709     -12.126
  C      -65.493     -71.869     -13.931
  C      -65.295     -71.726     -15.241
  O      -60.115     -69.797     -18.072
  O      -61.396     -68.619     -16.202
  H      -67.178     -68.704     -16.892
  H      -60.540     -68.153     -16.170
  H      -64.726     -72.185     -13.241
  H      -64.328     -71.922     -15.692
  H      -67.042     -71.344     -18.017
  H      -64.888     -69.338     -17.127
  H      -64.516     -69.004     -19.542
  H      -64.538     -71.756     -20.016
  H      -68.096     -71.482     -11.835
  H      -62.559     -71.948     -18.331
  H      -66.485     -71.997     -11.426
  H      -62.377     -70.837     -19.708
  P      -67.181     -68.798     -20.630
  C      -66.417     -68.749     -23.093
  O      -67.497     -68.974     -22.190
  O      -66.672     -67.441     -20.262
  O      -68.599     -69.066     -19.932
  H      -69.038     -68.211     -19.764
  H      -66.755     -68.897     -24.097
  H      -65.624     -69.435     -22.879
  H      -66.061     -67.746     -22.981

 6  7  8  9  10  11  12  13  14  15  16  26  30  31  32  33  35 0
 6-311+G(2d,p)
 ****
 37  38 0
 6-311+G(2d,p)
 ****
 1  2  3  4  5  17  18  19  20  21  22  23  24  25 0
 3-21G
 ****
 27  28  29  34  36  39  40  41  42  43  44  45  46 0
 3-21G
 ****


