%nproc=1
%NoSave
%Mem=1900MB
#P OB98/GEN NMR

erre ene a

0 1
  C       35.644     -51.484      19.737
  O       36.146     -51.832      18.462
  H       36.024     -50.495      20.006
  H       35.986     -52.207      20.482
  H       34.551     -51.453      19.721
  P       35.576     -53.173      17.800
  C       37.554     -53.237      16.074
  O       36.810     -53.911      17.081
  C       38.842     -54.002      15.779
  O       39.786     -53.870      16.859
  C       38.650     -55.504      15.646
  O       37.982     -55.867      14.459
  C       40.096     -55.972      15.710
  O       40.756     -55.787      14.451
  C       40.679     -55.015      16.779
  N       40.847     -55.660      18.073
  C       42.169     -55.916      18.459
  O       43.104     -55.590      17.727
  N       42.393     -56.560      19.650
  C       41.393     -56.896      20.401
  N       41.681     -57.539      21.563
  C       39.987     -56.622      20.046
  C       39.789     -56.013      18.878
  O       34.727     -52.620      16.564
  O       34.815     -54.066      18.723
  H       40.736     -54.827      14.269
  H       35.229     -52.028      15.980
  H       39.184     -56.912      20.708
  H       38.789     -55.776      18.540
  H       41.656     -54.631      16.460
  H       40.173     -57.033      15.957
  H       38.130     -55.898      16.528
  H       39.292     -53.573      14.875
  H       42.656     -57.729      21.765
  H       37.775     -52.209      16.373
  H       40.985     -57.876      22.210
  H       36.928     -53.192      15.177
  P       37.052     -57.173      14.414
  C       38.208     -57.631      12.160
  O       37.757     -58.189      13.389
  O       35.610     -56.916      14.139
  O       37.331     -57.872      15.828
  H       38.259     -58.121      15.983
  H       38.657     -58.398      11.564
  H       38.929     -56.866      12.359
  H       37.377     -57.210      11.633

 6  7  8  9  10  11  12  13  14  15  16  26  30  31  32  33  35 0
 6-311+G(2d,p)
 ****
 37  38 0
 6-311+G(2d,p)
 ****
 1  2  3  4  5  17  18  19  20  21  22  23  24  25 0
 3-21G
 ****
 27  28  29  34  36  39  40  41  42  43  44  45  46 0
 3-21G
 ****


