%nproc=1
%NoSave
%Mem=1900MB
#P OB98/GEN NMR

erre ene a

0 1
  C     -901.477     770.955     430.311
  O     -902.357     770.034     430.930
  H     -901.934     771.289     429.368
  H     -900.526     770.466     430.081
  H     -901.316     771.821     430.954
  P     -901.958     769.548     432.407
  C     -900.634     767.564     431.306
  O     -901.590     767.992     432.264
  C     -900.165     766.142     431.621
  O     -899.283     766.175     432.762
  C     -901.309     765.162     431.943
  O     -900.967     763.869     431.424
  C     -901.309     765.123     433.461
  O     -901.897     763.926     433.961
  C     -899.796     765.276     433.762
  N     -899.544     765.745     435.118
  C     -899.695     764.824     436.156
  O     -900.043     763.669     435.916
  N     -899.487     765.236     437.447
  C     -899.228     766.486     437.697
  N     -899.045     766.834     438.990
  C     -899.099     767.504     436.625
  C     -899.253     767.070     435.384
  O     -903.383     769.538     433.141
  O     -900.927     770.385     433.083
  H     -901.691     763.848     434.911
  H     -904.095     769.135     432.613
  H     -898.882     768.530     436.881
  H     -899.162     767.750     434.547
  H     -899.279     764.308     433.640
  H     -901.857     765.970     433.877
  H     -902.271     765.478     431.534
  H     -899.569     765.784     430.770
  H     -899.167     766.114     439.696
  H     -899.776     768.242     431.291
  H     -898.894     767.782     439.310
  H     -901.121     767.602     430.327
  P     -901.449     763.482     429.954
  C     -902.321     761.080     430.442
  O     -901.330     761.886     429.768
  O     -900.847     764.287     428.826
  O     -903.016     763.707     429.994
  H     -903.302     764.120     429.159
  H     -902.135     760.045     430.242
  H     -903.296     761.342     430.087
  H     -902.266     761.255     431.496

 6  7  8  9  10  11  12  13  14  15  16  26  30  31  32  33  35 0
 6-311+G(2d,p)
 ****
 37  38 0
 6-311+G(2d,p)
 ****
 1  2  3  4  5  17  18  19  20  21  22  23  24  25 0
 3-21G
 ****
 27  28  29  34  36  39  40  41  42  43  44  45  46 0
 3-21G
 ****


