%nproc=1
%NoSave
%Mem=1900MB
#P OB98/GEN NMR

erre ene a

0 1
  C     -203.436     -49.415     227.211
  O     -202.677     -48.455     226.463
  P     -201.176     -48.043     226.848
  C     -199.970     -46.757     228.733
  O     -201.208     -47.009     228.073
  C     -199.999     -45.428     229.500
  O     -199.828     -44.317     228.599
  C     -201.297     -45.150     230.244
  O     -201.386     -45.921     231.432
  C     -201.192     -43.644     230.466
  O     -200.375     -43.346     231.613
  C     -200.502     -43.178     229.171
  N     -201.435     -42.582     228.222
  C     -202.202     -41.512     228.691
  O     -202.118     -41.150     229.865
  N     -203.070     -40.894     227.821
  C     -203.210     -41.352     226.617
  N     -204.077     -40.695     225.796
  C     -202.486     -42.536     226.108
  C     -201.622     -43.092     226.958
  O     -200.356     -47.582     225.685
  O     -200.533     -49.364     227.491
  H     -200.894     -43.615     232.398
  H     -199.576     -49.375     227.305
  H     -202.652     -42.900     225.111
  H     -201.040     -43.958     226.665
  H     -199.715     -42.444     229.394
  H     -202.165     -43.174     230.634
  H     -202.153     -45.361     229.591
  H     -199.151     -45.428     230.199
  H     -204.553     -39.886     226.171
  H     -199.177     -46.717     227.975
  H     -204.258     -40.970     224.843
  H     -199.758     -47.584     229.417
  P     -202.477     -47.088     231.543
  C     -204.944     -47.290     232.220
  O     -203.872     -46.410     231.946
  O     -202.080     -48.266     232.372
  O     -202.726     -47.519     230.016
  H     -202.948     -48.470     229.988
  H     -205.673     -46.769     232.847
  H     -204.597     -48.185     232.747
  H     -205.427     -47.582     231.282
  H     -204.404     -49.527     226.769
  H     -203.541     -49.078     228.221
  H     -202.929     -50.357     227.201

 3  4  5  6  7  8  9  10  11  12  13  23  27  28  29  30  32 0
 6-311+G(2d,p)
 ****
 34  35 0
 6-311+G(2d,p)
 ****
 1  2  14  15  16  17  18  19  20  21  22  24  25  26 0
 3-21G
 ****
 31  33  36  37  38  39  40  41  42  43  44  45  46 0
 3-21G
 ****


