%nproc=1
%NoSave
%Mem=1900MB
#P OB98/GEN NMR

erre ene a

0 1
  C      812.818     630.791     226.928
  O      812.077     630.689     225.727
  P      811.539     632.047     225.072
  C      810.123     630.620     223.386
  O      810.154     631.689     224.330
  C      808.719     630.034     223.307
  O      808.352     629.470     224.580
  C      807.621     631.025     222.962
  O      807.636     631.360     221.572
  C      806.388     630.256     223.414
  O      806.028     629.277     222.439
  C      806.898     629.561     224.685
  N      803.066     630.962     227.799
  C      803.079     630.272     226.644
  N      804.131     629.944     225.857
  C      805.267     630.436     226.404
  C      805.405     631.193     227.546
  C      804.247     631.437     228.279
  N      804.224     632.158     229.468
  N      806.726     631.511     227.774
  C      807.389     630.976     226.761
  N      806.546     630.299     225.901
  O      812.555     632.277     223.829
  O      811.500     633.239     225.979
  H      805.308     628.740     222.833
  H      812.716     633.231     223.680
  H      802.102     629.890     226.290
  H      808.456     631.023     226.598
  H      806.510     628.545     224.807
  H      805.519     630.904     223.575
  H      807.739     631.948     223.579
  H      808.741     629.206     222.572
  H      810.831     629.852     223.701
  H      803.332     632.428     229.828
  H      805.089     632.612     229.750
  H      810.453     631.009     222.421
  P      807.794     632.909     221.181
  C      805.946     632.239     219.523
  O      806.435     633.240     220.407
  O      808.867     632.839     219.991
  O      808.146     633.818     222.326
  H      808.637     632.156     219.332
  H      804.981     632.561     219.099
  H      805.782     631.289     220.068
  H      806.640     632.082     218.710
  H      813.112     629.814     227.250
  H      812.213     631.248     227.683
  H      813.690     631.388     226.760

 3  4  5  6  7  8  9  10  11  12  22  25  29  30  31  32 0
 6-311+G(2d,p)
 ****
 33  36  37 0
 6-311+G(2d,p)
 ****
 1  2  13  14  15  16  17  18  19  20  21  23  24  26 0
 3-21G
 ****
 27  28  34  35  38  39  40  41  42  43  44  45  46  47  48 0
 3-21G
 ****


