%nproc=1
%NoSave
%Mem=1900MB
#P OB98/GEN NMR

erre ene a

0 1
  C      -13.378     -16.998     -13.255
  O      -13.215     -17.058     -11.857
  P      -14.348     -16.645     -10.812
  C      -15.035     -14.463      -9.543
  O      -14.293     -15.056     -10.603
  C      -15.401     -13.008      -9.871
  O      -16.272     -13.002     -11.031
  C      -16.180     -12.346      -8.722
  O      -15.792     -11.006      -8.453
  C      -17.634     -12.587      -9.115
  O      -18.548     -11.709      -8.476
  C      -17.563     -12.489     -10.636
  N      -22.543     -13.009     -11.521
  C      -21.873     -11.970     -10.904
  N      -22.644     -11.045     -10.290
  N      -20.567     -11.873     -10.866
  C      -19.928     -12.929     -11.423
  C      -20.486     -14.012     -12.064
  C      -21.926     -14.091     -12.127
  O      -22.565     -15.050     -12.563
  N      -19.534     -14.923     -12.445
  C      -18.402     -14.408     -12.007
  N      -18.596     -13.213     -11.350
  O      -14.493     -17.510      -9.602
  O      -15.688     -16.819     -11.701
  H      -18.460     -10.834      -8.900
  H      -16.395     -17.121     -11.096
  H      -23.552     -13.070     -11.444
  H      -17.425     -14.868     -12.109
  H      -17.632     -11.455     -10.974
  H      -17.894     -13.604      -8.799
  H      -23.640     -11.174     -10.177
  H      -15.978     -12.862      -7.775
  H      -22.182     -10.425      -9.630
  H      -14.490     -12.459     -10.133
  H      -14.390     -14.499      -8.658
  H      -15.934     -15.048      -9.328
  P      -16.181     -10.080      -7.210
  C      -18.291      -8.897      -6.356
  O      -17.777      -9.952      -7.146
  O      -15.722      -8.606      -7.631
  O      -15.540     -10.469      -5.919
  H      -15.342      -8.147      -6.858
  H      -19.354      -9.081      -6.172
  H      -18.184      -7.949      -6.892
  H      -17.769      -8.838      -5.397
  H      -12.479     -17.326     -13.733
  H      -13.590     -15.991     -13.546
  H      -14.189     -17.632     -13.547

 3  4  5  6  7  8  9  10  11  12  23  26  30  31 0
 6-311+G(2d,p)
 ****
 33  35  36  37  38 0
 6-311+G(2d,p)
 ****
 1  2  13  14  15  16  17  18  19  20  21  22  24  25 0
 3-21G
 ****
 27  28  29  32  34  39  40  41  42  43  44  45  46  47  48  49 0
 3-21G
 ****


