%nproc=1
%NoSave
%Mem=1900MB
#P OB98/GEN NMR

erre ene a

0 1
  C     -136.234    -212.923    -495.307
  O     -135.759    -214.197    -494.869
  P     -136.730    -215.469    -494.940
  C     -134.969    -216.791    -496.295
  O     -136.326    -216.375    -496.198
  C     -134.892    -218.177    -496.941
  O     -135.544    -219.178    -496.122
  C     -135.611    -218.249    -498.283
  O     -135.022    -217.544    -499.355
  C     -135.813    -219.745    -498.461
  O     -134.650    -220.375    -498.994
  C     -136.060    -220.199    -497.004
  N     -137.471    -220.473    -496.729
  C     -137.964    -221.687    -497.200
  O     -137.290    -222.482    -497.852
  N     -139.281    -221.941    -496.928
  C     -140.142    -221.106    -496.275
  O     -141.322    -221.377    -496.079
  C     -139.571    -219.828    -495.824
  C     -138.286    -219.571    -496.066
  O     -138.189    -215.179    -494.806
  O     -136.229    -216.364    -493.702
  H     -134.549    -220.074    -499.915
  H     -137.020    -216.735    -493.266
  H     -139.655    -222.820    -497.253
  H     -140.227    -219.139    -495.309
  H     -137.843    -218.636    -495.737
  H     -135.496    -221.118    -496.791
  H     -136.636    -219.959    -499.151
  H     -136.610    -217.808    -498.152
  H     -133.840    -218.461    -497.034
  H     -134.516    -216.813    -495.301
  H     -134.408    -216.049    -496.875
  P     -135.837    -216.521    -500.288
  C     -134.520    -214.429    -499.507
  O     -135.771    -215.069    -499.619
  O     -137.157    -216.975    -500.813
  O     -134.825    -216.355    -501.529
  H     -135.353    -216.218    -502.336
  H     -134.662    -213.461    -499.014
  H     -134.085    -214.256    -500.494
  H     -133.838    -215.034    -498.900
  H     -135.460    -212.194    -495.190
  H     -137.083    -212.638    -494.722
  H     -136.515    -212.982    -496.338

 3  4  5  6  7  8  9  10  11  12  13  23  28  29  30  31  32 0
 6-311+G(2d,p)
 ****
 33  34 0
 6-311+G(2d,p)
 ****
 1  2  14  15  16  17  18  19  20  21  22  24  25  26  27 0
 3-21G
 ****
 35  36  37  38  39  40  41  42  43  44  45 0
 3-21G
 ****


