%nproc=1
%NoSave
%Mem=1900MB
#P OB98/GEN NMR

erre ene a

0 1
  C     -621.725      85.585    -480.900
  O     -620.809      85.036    -481.820
  P     -621.206      84.874    -483.366
  C     -622.987      83.475    -484.589
  O     -622.127      83.561    -483.455
  C     -623.569      82.065    -484.696
  O     -624.118      81.627    -483.429
  C     -624.729      81.947    -485.675
  O     -624.452      82.150    -487.039
  C     -625.314      80.602    -485.274
  O     -624.584      79.525    -485.859
  C     -625.116      80.624    -483.738
  N     -626.373      80.869    -483.029
  C     -626.883      79.797    -482.313
  O     -626.341      78.695    -482.249
  N     -628.078      80.017    -481.675
  C     -628.812      81.166    -481.727
  O     -629.897      81.282    -481.169
  C     -628.229      82.256    -482.520
  C     -627.052      82.067    -483.127
  O     -620.064      84.895    -484.323
  O     -622.272      86.048    -483.595
  H     -625.004      78.692    -485.566
  H     -623.064      85.998    -483.035
  H     -628.470      79.251    -481.155
  H     -628.781      83.188    -482.574
  H     -626.604      82.859    -483.715
  H     -624.716      79.664    -483.397
  H     -626.357      80.499    -485.602
  H     -625.474      82.708    -485.409
  H     -622.756      81.376    -484.950
  H     -622.408      83.691    -485.491
  H     -623.777      84.227    -484.504
  P     -625.572      82.544    -488.117
  C     -627.759      81.466    -488.999
  O     -626.527      81.278    -488.341
  O     -625.103      83.274    -489.331
  O     -626.514      83.520    -487.261
  H     -626.909      84.183    -487.849
  H     -628.295      80.513    -489.023
  H     -627.598      81.799    -490.026
  H     -628.373      82.200    -488.466
  H     -621.281      85.611    -479.927
  H     -622.608      84.982    -480.873
  H     -621.981      86.579    -481.202

 3  4  5  6  7  8  9  10  11  12  13  23  28  29  30  31  32 0
 6-311+G(2d,p)
 ****
 33  34 0
 6-311+G(2d,p)
 ****
 1  2  14  15  16  17  18  19  20  21  22  24  25  26  27 0
 3-21G
 ****
 35  36  37  38  39  40  41  42  43  44  45 0
 3-21G
 ****


