%nproc=1
%NoSave
%Mem=1900MB
#P OB98/GEN NMR

erre ene a

0 1
  C      110.980     330.141       0.570
  O      110.134     330.912       1.400
  H      110.743     329.082       0.711
  H      112.029     330.305       0.838
  H      110.821     330.401      -0.478
  P      110.403     332.497       1.413
  C      112.493     331.811       2.815
  O      111.396     332.698       2.659
  C      113.208     332.100       4.131
  O      114.261     331.138       4.360
  C      113.886     333.467       4.185
  O      112.976     334.524       4.438
  C      114.840     333.250       5.344
  O      114.112     333.305       6.586
  C      115.340     331.817       5.058
  N      116.568     331.785       4.261
  C      117.774     331.925       4.956
  O      117.778     332.074       6.177
  N      118.952     331.922       4.247
  C      118.930     331.782       2.957
  N      120.125     331.804       2.304
  C      117.685     331.616       2.188
  C      116.556     331.628       2.891
  O      109.028     333.107       1.963
  O      110.872     333.093       0.129
  H      113.742     334.204       6.658
  H      109.133     334.075       2.126
  H      117.717     331.515       1.111
  H      115.600     331.513       2.390
  H      115.518     331.268       5.994
  H      115.625     334.005       5.399
  H      114.473     333.662       3.281
  H      112.477     331.984       4.945
  H      120.957     331.980       2.852
  H      113.179     331.956       1.972
  H      120.195     331.882       1.298
  H      112.142     330.775       2.814
  P      113.132     335.864       3.565
  C      114.676     336.927       5.365
  O      113.494     337.048       4.585
  O      111.628     336.193       3.139
  O      114.038     335.744       2.377
  H      111.582     336.532       2.224
  H      114.780     337.788       5.991
  H      115.525     336.853       4.717
  H      114.613     336.049       5.973

 6  7  8  9  10  11  12  13  14  15  16  26  30  31  32  33  35 0
 6-311+G(2d,p)
 ****
 37  38 0
 6-311+G(2d,p)
 ****
 1  2  3  4  5  17  18  19  20  21  22  23  24  25 0
 3-21G
 ****
 27  28  29  34  36  39  40  41  42  43  44  45  46 0
 3-21G
 ****


