%nproc=1
%NoSave
%Mem=1900MB
#P OB98/GEN NMR

erre ene a

0 1
  C      225.728     -92.009    -194.156
  O      224.513     -91.734    -194.826
  H      226.558     -91.687    -194.790
  H      225.818     -93.083    -193.974
  H      225.774     -91.465    -193.207
  P      223.161     -91.967    -193.990
  C      222.486     -89.430    -193.916
  O      222.890     -90.591    -193.213
  C      221.428     -88.661    -193.123
  O      220.149     -89.324    -193.288
  C      221.723     -88.578    -191.625
  O      221.274     -87.310    -191.144
  C      220.849     -89.675    -191.037
  O      220.562     -89.451    -189.659
  C      219.634     -89.626    -191.975
  N      218.873     -90.873    -191.968
  C      217.978     -91.057    -190.909
  O      217.868     -90.198    -190.033
  N      217.260     -92.223    -190.842
  C      217.465     -93.156    -191.719
  N      216.739     -94.299    -191.582
  C      218.430     -93.024    -192.826
  C      219.086     -91.865    -192.896
  O      223.654     -92.964    -192.840
  O      222.016     -92.478    -194.800
  H      220.289     -88.515    -189.546
  H      224.502     -92.706    -192.442
  H      218.573     -93.835    -193.526
  H      219.808     -91.680    -193.681
  H      218.958     -88.810    -191.687
  H      221.356     -90.644    -191.121
  H      222.782     -88.710    -191.393
  H      221.324     -87.661    -193.559
  H      216.106     -94.357    -190.796
  H      222.077     -89.701    -194.896
  H      216.856     -95.110    -192.171
  H      223.369     -88.806    -194.078
  P      222.125     -86.543    -190.026
  C      221.725     -84.142    -190.898
  O      222.676     -85.165    -190.632
  O      223.134     -87.369    -189.301
  O      220.989     -86.036    -189.006
  H      221.329     -86.160    -188.098
  H      222.226     -83.284    -191.296
  H      221.226     -83.874    -189.990
  H      221.007     -84.498    -191.608

 6  7  8  9  10  11  12  13  14  15  16  26  30  31  32  33  35 0
 6-311+G(2d,p)
 ****
 37  38 0
 6-311+G(2d,p)
 ****
 1  2  3  4  5  17  18  19  20  21  22  23  24  25 0
 3-21G
 ****
 27  28  29  34  36  39  40  41  42  43  44  45  46 0
 3-21G
 ****


