%nproc=1
%NoSave
%Mem=1900MB
#P OB98/GEN NMR

erre ene a

0 1
  C      328.611     109.061      75.597
  O      327.258     108.635      75.795
  P      327.012     107.525      76.933
  C      324.888     106.563      75.773
  O      325.446     107.170      76.932
  C      323.367     106.692      75.775
  O      322.776     105.838      76.773
  C      322.857     108.091      76.100
  O      322.928     108.948      74.972
  C      321.411     107.797      76.470
  O      320.610     107.698      75.276
  C      321.514     106.430      77.166
  N      318.545     106.893      81.250
  C      318.210     106.839      79.910
  N      316.888     106.885      79.620
  N      319.086     106.745      78.943
  C      320.364     106.675      79.384
  C      320.824     106.721      80.678
  C      319.847     106.857      81.738
  O      320.093     106.941      82.936
  N      322.194     106.616      80.730
  C      322.552     106.475      79.471
  N      321.484     106.522      78.613
  O      327.200     108.356      78.291
  O      327.943     106.360      76.857
  H      320.890     106.887      74.811
  H      327.491     107.761      79.009
  H      317.831     106.972      81.950
  H      323.573     106.338      79.130
  H      320.720     105.748      76.845
  H      320.966     108.587      77.084
  H      316.160     106.884      80.317
  H      323.385     108.508      76.966
  H      316.623     106.811      78.644
  H      322.998     106.380      74.787
  H      325.164     105.507      75.743
  H      325.323     107.031      74.883
  P      323.417     110.456      75.227
  C      322.180     111.528      73.212
  O      323.419     111.151      73.784
  O      324.968     110.279      75.574
  O      322.676     111.175      76.306
  H      325.270     111.000      76.160
  H      321.522     111.991      73.950
  H      321.694     110.643      72.790
  H      322.366     112.248      72.407
  H      328.644     109.795      74.819
  H      329.212     108.221      75.319
  H      328.988     109.485      76.504

 3  4  5  6  7  8  9  10  11  12  23  26  30  31  33  0
 6-311+G(2d,p)
 ****
 35  36  37  38 0
 6-311+G(2d,p)
 ****
 1  2  13  14  15  16  17  18  19  20  21  22  24  25  27  28  29 0
 3-21G
 ****
 32  34  39  40  41  42  43  44  45  46  47  48  49 0
 3-21G
 ****


