%nproc=1
%NoSave
%Mem=1900MB
#P OB98/GEN NMR

erre ene a

0 1
  C      559.549     -89.980    -370.739
  O      558.239     -90.513    -370.681
  P      557.765     -91.664    -371.697
  C      557.643     -93.413    -369.798
  O      556.927     -92.691    -370.799
  C      556.693     -94.371    -369.078
  O      555.683     -93.616    -368.378
  C      555.932     -95.323    -369.995
  O      556.772     -96.382    -370.435
  C      554.778     -95.733    -369.095
  O      555.202     -96.744    -368.161
  C      554.483     -94.421    -368.338
  N      553.343     -93.694    -368.896
  C      552.082     -94.023    -368.390
  O      551.954     -94.890    -367.517
  N      550.989     -93.354    -368.865
  C      551.132     -92.440    -369.779
  N      550.015     -91.756    -370.159
  C      552.432     -92.095    -370.374
  C      553.486     -92.748    -369.891
  O      558.861     -92.285    -372.494
  O      556.631     -90.975    -372.586
  H      555.785     -96.307    -367.511
  H      556.981     -90.515    -373.387
  H      552.498     -91.338    -371.145
  H      554.479     -92.545    -370.260
  H      554.287     -94.627    -367.280
  H      553.917     -96.129    -369.641
  H      555.550     -94.784    -370.867
  H      557.276     -94.938    -368.337
  H      549.183     -91.905    -369.600
  H      558.049     -92.702    -369.074
  H      550.079     -90.869    -370.634
  H      558.467     -93.956    -370.265
  P      556.244     -97.287    -371.648
  C      556.555     -95.754    -373.708
  O      557.074     -96.819    -372.942
  O      554.760     -96.744    -371.900
  O      556.267     -98.756    -371.375
  H      554.106     -97.343    -371.494
  H      557.334     -95.407    -374.391
  H      556.258     -94.915    -373.067
  H      555.700     -96.091    -374.298
  H      559.663     -89.231    -369.984
  H      559.714     -89.544    -371.702
  H      560.260     -90.763    -370.575

 3  4  5  6  7  8  9  10  11  12  13  23  27  28  29  30  32 0
 6-311+G(2d,p)
 ****
 34  35 0
 6-311+G(2d,p)
 ****
 1  2  14  15  16  17  18  19  20  21  22  24  25  26 0
 3-21G
 ****
 31  33  36  37  38  39  40  41  42  43  44  45  46 0
 3-21G
 ****


