%nproc=1
%NoSave
%Mem=1900MB
#P OB98/GEN NMR

erre ene a

0 1
  C      213.248      94.311    -281.785
  O      211.953      93.796    -281.982
  P      210.893      94.579    -282.895
  C      210.422      95.997    -280.798
  O      210.668      96.011    -282.197
  C      210.597      97.396    -280.218
  O      211.986      97.815    -280.278
  C      209.851      98.482    -280.975
  O      208.439      98.441    -280.948
  C      210.514      99.738    -280.432
  O      209.976     100.109    -279.165
  C      211.983      99.268    -280.284
  N      212.843      99.809    -281.333
  C      213.670     100.863    -280.961
  O      213.702     101.335    -279.824
  N      214.451     101.391    -281.954
  C      214.450     101.007    -283.266
  O      215.143     101.554    -284.116
  C      213.544      99.903    -283.605
  C      212.791      99.359    -282.639
  O      209.637      93.837    -283.193
  O      211.744      94.969    -284.196
  H      210.376     100.971    -278.922
  H      212.524      95.527    -284.024
  H      215.048     102.163    -281.710
  H      213.530      99.562    -284.630
  H      212.113      98.542    -282.867
  H      212.389      99.585    -279.312
  H      210.381     100.592    -281.104
  H      210.121      98.408    -282.039
  H      210.316      97.372    -279.160
  H      211.138      95.323    -280.318
  H      209.415      95.610    -280.604
  P      207.512      98.967    -282.146
  C      206.879     101.242    -281.075
  O      207.535     100.568    -282.134
  O      206.192      98.295    -282.313
  O      208.432      98.636    -283.424
  H      207.856      98.440    -284.186
  H      206.958     102.317    -281.249
  H      207.362     101.009    -280.118
  H      205.826     100.967    -281.037
  H      213.802      93.651    -281.151
  H      213.182      95.275    -281.325
  H      213.744      94.399    -282.729

 3  4  5  6  7  8  9  10  11  12  13  23  28  29  30  31  32 0
 6-311+G(2d,p)
 ****
 33  34 0
 6-311+G(2d,p)
 ****
 1  2  14  15  16  17  18  19  20  21  22  24  25  26  27 0
 3-21G
 ****
 35  36  37  38  39  40  41  42  43  44  45 0
 3-21G
 ****


