%nproc=1
%NoSave
%Mem=1900MB
#P OB98/GEN NMR

erre ene a

0 1
  C      102.145      32.495      14.105
  O      100.875      31.899      14.300
  P      100.840      30.407      14.896
  C      100.067      29.314      12.669
  O      101.086      29.417      13.656
  C      100.040      27.921      12.039
  O      101.306      27.683      11.376
  C       99.808      26.786      13.040
  O       98.994      25.799      12.404
  C      101.199      26.215      13.256
  O      101.151      24.856      13.691
  C      101.829      26.429      11.869
  N      103.288      26.444      11.925
  C      103.938      25.212      11.792
  O      103.281      24.174      11.719
  N      105.313      25.186      11.799
  C      105.974      26.278      12.030
  N      107.334      26.197      12.024
  C      105.323      27.575      12.298
  C      103.994      27.591      12.207
  O       99.291      30.192      15.237
  O      101.716      30.188      16.086
  H      102.057      24.483      13.620
  H       99.181      29.607      16.011
  H      105.922      28.447      12.519
  H      103.434      28.504      12.365
  H      101.514      25.638      11.174
  H      101.730      26.803      14.014
  H       99.326      27.124      13.963
  H       99.261      27.909      11.265
  H      107.756      25.293      11.853
  H      100.263      30.043      11.876
  H      107.935      26.995      12.194
  H       99.097      29.555      13.119
  P       97.881      25.064      13.293
  C       99.498      23.084      13.543
  O       98.695      24.036      14.216
  O       97.216      24.073      12.219
  O       96.845      25.904      13.964
  H       96.465      23.604      12.626
  H      100.097      22.545      14.281
  H      100.171      23.579      12.838
  H       98.862      22.367      13.017
  H      102.019      33.480      13.706
  H      102.715      31.903      13.420
  H      102.660      32.552      15.041

 3  4  5  6  7  8  9  10  11  12  13  21  23  27  28  29  30  32 0
 6-311+G(2d,p)
 ****
 34  35 0
 6-311+G(2d,p)
 ****
 1  2  14  15  16  17  18  19  20  22  24  25  26 0
 3-21G
 ****
 31  33  36  37  38  39  40  41  42  43  44  45  46 0
 3-21G
 ****


