%nproc=1
%NoSave
%Mem=1900MB
#P OB98/GEN NMR

erre ene a

0 1
  C       27.162    -466.745     534.827
  O       27.170    -466.604     533.403
  P       26.467    -467.782     532.564
  C       28.542    -469.323     532.825
  O       27.627    -468.696     531.935
  C       29.437    -470.322     532.076
  O       28.681    -471.424     531.515
  C       30.175    -469.702     530.893
  O       31.317    -468.983     531.363
  C       30.544    -470.925     530.067
  O       31.751    -471.540     530.552
  C       29.328    -471.845     530.293
  N       25.456    -474.403     528.227
  C       26.300    -474.754     529.273
  N       26.072    -475.948     529.853
  N       27.286    -474.003     529.689
  C       27.402    -472.838     529.015
  C       26.606    -472.363     527.990
  C       25.531    -473.206     527.527
  O       24.742    -472.923     526.630
  N       27.002    -471.105     527.595
  C       28.101    -470.878     528.292
  N       28.349    -471.870     529.212
  O       25.840    -467.012     531.306
  O       25.413    -468.512     533.345
  H       31.596    -471.875     531.456
  H       24.865    -467.003     531.368
  H       24.716    -475.016     527.941
  H       28.732    -470.008     528.194
  H       29.647    -472.893     530.444
  H       30.727    -470.666     529.020
  H       25.326    -476.579     529.578
  H       29.503    -469.037     530.323
  H       26.664    -476.233     530.623
  H       30.158    -470.726     532.792
  H       28.002    -469.847     533.620
  H       29.147    -468.557     533.306
  P       31.187    -467.399     531.548
  C       32.877    -466.627     529.732
  O       32.584    -466.736     531.112
  O       31.160    -467.219     533.134
  O       29.971    -466.797     530.913
  H       30.453    -466.579     533.387
  H       33.517    -465.758     529.578
  H       31.965    -466.500     529.126
  H       33.405    -467.527     529.403
  H       27.655    -465.906     535.271
  H       27.674    -467.644     535.099
  H       26.151    -466.790     535.175

 3  4  5  6  7  8  9  10  11  12  23  26  30  31 0
 6-311+G(2d,p)
 ****
 33  35  36  37  38 0
 6-311+G(2d,p)
 ****
 1  2  13  14  15  16  17  18  19  20  21  22  24  25 0
 3-21G
 ****
 27  28  29  32  34  39  40  41  42  43  44  45  46  47  48  49 0
 3-21G
 ****


