%nproc=1
%NoSave
%Mem=1900MB
#P OB98/GEN NMR

erre ene a

0 1
  C       93.156     235.004    -285.199
  O       94.223     234.244    -284.635
  P       94.966     234.597    -283.268
  C       97.116     235.575    -284.407
  O       96.541     234.605    -283.542
  C       98.638     235.411    -284.573
  O       99.293     235.662    -283.301
  C       98.983     233.972    -284.960
  O       98.912     233.562    -286.314
  C      100.334     233.710    -284.306
  O      101.429     233.961    -285.188
  C      100.351     234.697    -283.136
  N      102.754     232.849    -279.014
  C      103.292     233.386    -280.167
  N      104.635     233.390    -280.264
  N      102.569     233.860    -281.149
  C      101.237     233.719    -280.960
  C      100.587     233.184    -279.871
  C      101.394     232.712    -278.765
  O      100.972     232.236    -277.714
  N       99.227     233.182    -280.047
  C       99.053     233.691    -281.247
  N      100.247     234.040    -281.842
  O       94.492     233.853    -282.065
  O       94.612     236.157    -283.046
  H      101.505     234.923    -285.304
  H       94.557     236.296    -282.077
  H      103.360     232.520    -278.275
  H       98.093     233.834    -281.731
  H      101.289     235.266    -283.115
  H      100.416     232.659    -283.998
  H      105.244     232.932    -279.600
  H       98.274     233.320    -284.434
  H      105.023     233.580    -281.191
  H       99.036     236.154    -285.268
  H       96.883     236.555    -283.983
  H       96.635     235.534    -285.387
  P       97.653     232.873    -287.028
  C       98.478     230.521    -286.426
  O       98.084     231.399    -287.469
  O       97.538     233.637    -288.428
  O       96.370     232.956    -286.265
  H       96.663     233.481    -288.828
  H       99.033     229.682    -286.855
  H       97.589     230.140    -285.914
  H       99.120     231.038    -285.704
  H       92.840     234.550    -286.115
  H       93.492     236.001    -285.392
  H       92.335     235.030    -284.513

 3  4  5  6  7  8  9  10  11  12  23  26  30  31 0
 6-311+G(2d,p)
 ****
 33  35  36  37  38 0
 6-311+G(2d,p)
 ****
 1  2  13  14  15  16  17  18  19  20  21  22  24  25 0
 3-21G
 ****
 27  28  29  32  34  39  40  41  42  43  44  45  46  47  48  49 0
 3-21G
 ****


