%nproc=1
%NoSave
%Mem=1900MB
#P OB98/GEN NMR

erre ene a

0 1
  C     -892.147     414.220    -905.976
  O     -893.137     414.065    -906.979
  H     -892.342     415.138    -905.423
  H     -891.156     414.292    -906.443
  H     -892.168     413.378    -905.284
  P     -893.132     412.692    -907.795
  C     -895.560     412.195    -906.934
  O     -894.660     412.277    -908.035
  C     -896.960     412.652    -907.354
  O     -896.990     414.086    -907.584
  C     -897.420     412.061    -908.681
  O     -897.730     410.684    -908.586
  C     -898.620     412.948    -908.971
  O     -899.770     412.546    -908.205
  C     -898.100     414.327    -908.493
  N     -897.710     415.198    -909.598
  C     -898.770     415.797    -910.296
  O     -899.940     415.586    -909.962
  N     -898.460     416.594    -911.372
  C     -897.230     416.803    -911.708
  N     -897.000     417.591    -912.786
  C     -896.090     416.203    -910.966
  C     -896.390     415.427    -909.937
  O     -892.639     411.630    -906.703
  O     -892.332     412.692    -909.052
  H     -900.000     411.641    -908.507
  H     -893.163     411.651    -905.881
  H     -895.070     416.420    -911.278
  H     -895.630     414.944    -909.360
  H     -898.880     414.846    -907.898
  H     -898.910     412.918    -910.016
  H     -896.670     412.250    -909.457
  H     -897.650     412.412    -906.550
  H     -897.810     417.970    -913.268
  H     -895.200     412.799    -906.089
  H     -896.080     417.792    -913.158
  H     -895.590     411.157    -906.595
  P     -897.410     409.694    -909.806
  C     -894.970     409.197    -909.173
  O     -896.280     408.664    -909.292
  O     -897.080     410.379    -911.098
  O     -898.720     408.763    -909.867
  H     -898.900     408.259    -909.052
  H     -894.305     408.434    -908.827
  H     -894.977     410.008    -908.475
  H     -894.641     409.551    -910.128

 6  7  8  9  10  11  12  13  14  15  16  26  30  31  32  33  35 0
 6-311+G(2d,p)
 ****
 37  38 0
 6-311+G(2d,p)
 ****
 1  2  3  4  5  17  18  19  20  21  22  23  24  25 0
 3-21G
 ****
 27  28  29  34  36  39  40  41  42  43  44  45  46 0
 3-21G
 ****


