%nproc=1
%NoSave
%Mem=1900MB
#P OB98/GEN NMR

erre ene a

0 1
  C       60.676    -236.214     -44.268
  O       61.093    -235.448     -43.156
  H       61.271    -235.924     -45.138
  H       59.621    -236.024     -44.484
  H       60.832    -237.277     -44.072
  P       60.302    -235.677     -41.780
  C       62.210    -236.828     -40.445
  O       60.951    -236.971     -41.088
  C       62.012    -236.806     -38.933
  O       61.365    -238.025     -38.505
  C       63.308    -236.734     -38.138
  O       63.846    -235.425     -38.103
  C       62.837    -237.214     -36.775
  O       62.255    -236.145     -36.013
  C       61.775    -238.273     -37.144
  N       62.267    -239.633     -36.960
  C       61.936    -240.237     -35.750
  O       61.271    -239.678     -34.877
  N       62.427    -241.499     -35.557
  C       63.231    -242.185     -36.419
  O       63.698    -243.285     -36.153
  C       63.537    -241.503     -37.688
  C       63.057    -240.274     -37.894
  O       58.866    -236.186     -42.269
  O       60.206    -234.477     -40.899
  H       58.216    -235.461     -42.203
  H       61.496    -235.820     -36.535
  H       62.208    -241.947     -34.682
  H       64.169    -242.024     -38.398
  H       63.287    -239.744     -38.813
  H       60.881    -238.150     -36.519
  H       63.660    -237.613     -36.183
  H       64.036    -237.453     -38.533
  H       61.356    -235.962     -38.681
  H       62.676    -235.889     -40.758
  H       62.859    -237.660     -40.743
  P       65.369    -235.235     -37.640
  C       66.051    -234.171     -39.944
  O       66.251    -235.187     -38.979
  O       65.683    -236.672     -37.016
  O       65.576    -234.085     -36.714
  H       65.243    -237.397     -37.491
  H       66.732    -234.312     -40.757
  H       66.224    -233.215     -39.496
  H       65.046    -234.218     -40.308

 6  7  8  9  10  11  12  13  14  15  16  27  31  32  33  34  35 0
 6-311+G(2d,p)
 ****
 36  37 0
 6-311+G(2d,p)
 ****
 1  2  3  4  5  17  18  19  20  21  22  23  24  25 0
 3-21G
 ****
 26  28  29  30  38  39  40  41  42  43  44  45 0
 3-21G
 ****


