%nproc=1
%NoSave
%Mem=1900MB
#P OB98/GEN NMR

erre ene a

0 1
  C     -456.071    -641.545    -614.390
  O     -455.451    -641.594    -615.663
  H     -455.706    -642.385    -613.794
  H     -457.157    -641.628    -614.496
  H     -455.809    -640.614    -613.884
  P     -455.881    -640.456    -616.711
  C     -453.678    -640.745    -618.023
  O     -455.098    -640.848    -618.061
  C     -453.090    -640.960    -619.417
  O     -452.945    -642.380    -619.647
  C     -453.969    -640.396    -620.538
  O     -453.132    -639.834    -621.553
  C     -454.680    -641.619    -621.087
  O     -455.078    -641.452    -622.442
  C     -453.630    -642.706    -620.869
  N     -454.810    -646.926    -623.490
  C     -454.089    -645.837    -623.811
  N     -453.802    -644.763    -623.044
  C     -454.320    -644.912    -621.808
  C     -455.080    -645.963    -621.339
  C     -455.335    -647.012    -622.237
  N     -456.087    -648.119    -621.931
  N     -455.468    -645.732    -620.030
  C     -454.937    -644.564    -619.716
  N     -454.248    -644.020    -620.769
  O     -455.700    -639.048    -616.253
  O     -457.387    -640.882    -617.051
  H     -455.408    -642.311    -622.777
  H     -457.461    -641.839    -617.191
  H     -453.676    -645.817    -624.820
  H     -455.026    -644.067    -618.750
  H     -452.900    -642.755    -621.675
  H     -455.577    -641.824    -620.492
  H     -454.673    -639.645    -620.182
  H     -452.082    -640.528    -619.446
  H     -453.265    -641.494    -617.335
  H     -456.209    -648.828    -622.633
  H     -456.473    -648.203    -620.994
  H     -453.423    -639.753    -617.651
  P     -452.760    -638.279    -621.463
  C     -450.351    -638.373    -622.396
  O     -451.690    -637.943    -622.613
  O     -452.418    -637.769    -620.099
  O     -454.086    -637.570    -622.017
  H     -454.244    -636.753    -621.510
  H     -449.745    -638.088    -623.231
  H     -450.331    -639.437    -622.287
  H     -449.970    -637.917    -621.507

 6  7  8  9  10  11  12  13  14  15  25  28  32  33  34  35 0
 6-311+G(2d,p)
 ****
 36  39  40 0
 6-311+G(2d,p)
 ****
 1  2  3  4  5  16  17  18  19  20  21  22  23  24 0
 3-21G
 ****
 26  27  29  30  31  37  38  41  42  43  44  45  46  47 0
 3-21G
 ****
 48 0
 3-21G
 ****


