%nproc=1
%NoSave
%Mem=1900MB
#P OB98/GEN NMR

erre ene a

0 1
  C     -549.039     187.365    -364.689
  O     -549.903     188.484    -364.653
  H     -549.258     186.694    -363.849
  H     -549.202     186.820    -365.622
  H     -547.996     187.688    -364.649
  P     -549.816     189.402    -363.337
  C     -551.421     187.918    -361.943
  O     -550.108     188.440    -362.080
  C     -551.612     187.332    -360.541
  O     -551.504     188.415    -359.577
  C     -552.975     186.638    -360.330
  O     -552.792     185.334    -359.765
  C     -553.683     187.516    -359.305
  O     -554.503     186.773    -358.418
  C     -552.520     188.196    -358.589
  N     -552.804     190.700    -354.158
  C     -552.041     189.651    -354.542
  N     -551.934     189.096    -355.768
  C     -552.710     189.754    -356.658
  C     -553.527     190.853    -356.416
  C     -553.568     191.319    -355.096
  N     -554.386     192.352    -354.683
  N     -554.177     191.243    -357.569
  C     -553.792     190.370    -358.487
  N     -552.919     189.442    -357.976
  O     -551.148     190.298    -363.435
  O     -548.591     190.245    -363.247
  H     -553.924     186.128    -357.964
  H     -550.885     191.236    -363.493
  H     -551.436     189.196    -353.762
  H     -554.144     190.338    -359.513
  H     -552.088     187.555    -357.806
  H     -554.304     188.245    -359.835
  H     -553.554     186.560    -361.253
  H     -550.792     186.630    -360.341
  H     -551.586     187.119    -362.686
  H     -554.449     192.540    -353.697
  H     -555.046     192.731    -355.348
  H     -552.142     188.724    -362.127
  P     -552.814     184.104    -360.806
  C     -554.876     182.839    -359.826
  O     -554.337     183.582    -360.925
  O     -552.067     182.936    -360.005
  O     -552.141     184.397    -362.103
  H     -551.306     182.612    -360.524
  H     -555.886     182.561    -360.044
  H     -554.855     183.443    -358.943
  H     -554.290     181.958    -359.669

 6  7  8  9  10  11  12  13  14  15  25  28  32  33  34  35 0
 6-311+G(2d,p)
 ****
 36  39  40 0
 6-311+G(2d,p)
 ****
 1  2  3  4  5  16  17  18  19  20  21  22  23  24 0
 3-21G
 ****
 26  27  29  30  31  37  38  41  42  43  44  45  46  47  48 0
 3-21G
 ****


