%nproc=1
%NoSave
%Mem=1900MB
#P OB98/GEN NMR

erre ene a

0 1
  C       17.073    -858.324    -216.670
  O       16.495    -857.213    -217.328
  H       18.129    -858.107    -216.483
  H       17.011    -859.212    -217.305
  H       16.579    -858.509    -215.713
  P       14.913    -857.208    -217.584
  C       14.267    -855.422    -215.829
  O       14.215    -856.799    -216.197
  C       12.884    -854.948    -215.408
  O       11.936    -855.150    -216.480
  C       12.312    -855.688    -214.207
  O       12.905    -855.250    -212.998
  C       10.829    -855.361    -214.344
  O       10.547    -854.059    -213.820
  C       10.646    -855.390    -215.878
  N       10.069    -856.648    -216.354
  C        8.677    -856.711    -216.404
  O        7.945    -855.795    -216.030
  N        8.151    -857.897    -216.852
  C        8.857    -859.026    -217.152
  O        8.323    -860.086    -217.469
  C       10.319    -858.905    -217.059
  C       10.846    -857.743    -216.674
  O       14.355    -858.432    -218.229
  O       14.683    -855.910    -218.492
  H       10.665    -854.120    -212.847
  H       14.521    -856.189    -219.416
  H        7.142    -857.963    -216.879
  H       10.910    -859.772    -217.306
  H       11.921    -857.634    -216.596
  H        9.989    -854.570    -216.196
  H       10.203    -856.065    -213.808
  H       12.451    -856.768    -214.331
  H       12.939    -853.868    -215.206
  H       14.613    -854.840    -216.689
  H       14.988    -855.303    -215.012
  P       13.107    -856.274    -211.787
  C       15.071    -857.456    -212.947
  O       13.773    -857.610    -212.375
  O       11.900    -856.490    -210.936
  O       14.291    -855.623    -210.935
  H       13.970    -855.428    -210.034
  H       15.417    -858.403    -213.305
  H       15.747    -857.087    -212.204
  H       15.022    -856.763    -213.761

 6  7  8  9  10  11  12  13  14  15  16  26  31  32  33  34  35 0
 6-311+G(2d,p)
 ****
 36  37 0
 6-311+G(2d,p)
 ****
 1  2  3  4  5  17  18  19  20  21  22  23  24  25 0
 3-21G
 ****
 27  28  29  30  38  39  40  41  42  43  44  45 0
 3-21G
 ****


