%nproc=1
%NoSave
%Mem=1900MB
#P OB98/GEN NMR

erre ene a

0 1
  C      692.085     351.203    -670.299
  O      691.807     349.809    -670.471
  P      692.987     348.770    -670.124
  C      691.826     346.892    -671.528
  O      692.395     347.302    -670.299
  C      690.838     345.721    -671.312
  O      691.577     344.594    -670.778
  C      689.720     345.990    -670.317
  O      688.681     345.019    -670.520
  C      690.408     345.698    -669.001
  O      689.470     345.468    -667.953
  C      691.309     344.491    -669.355
  N      692.587     344.467    -668.603
  C      692.549     344.257    -667.233
  O      691.505     344.099    -666.595
  N      693.748     344.276    -666.581
  C      694.978     344.442    -667.162
  O      696.023     344.541    -666.520
  C      694.986     344.506    -668.632
  C      693.812     344.534    -669.268
  O      693.174     348.943    -668.542
  O      694.258     349.028    -670.865
  H      688.755     344.898    -668.330
  H      693.993     349.443    -668.354
  H      693.731     344.202    -665.567
  H      695.936     344.565    -669.119
  H      693.799     344.599    -670.356
  H      690.808     343.535    -669.160
  H      691.025     346.541    -668.704
  H      689.302     346.988    -670.351
  H      690.432     345.416    -672.283
  H      692.602     346.610    -672.239
  H      691.279     347.732    -671.974
  P      687.492     345.404    -671.535
  C      686.034     346.166    -669.566
  O      686.130     345.312    -670.699
  O      687.489     344.692    -672.855
  O      687.684     346.990    -671.716
  H      687.224     347.290    -672.531
  H      684.981     346.414    -669.397
  H      686.602     347.083    -669.689
  H      686.403     345.617    -668.687
  H      691.220     351.775    -670.564
  H      692.904     351.484    -670.928
  H      692.339     351.393    -669.277

 3  4  5  6  7  8  9  10  11  12  13  23  28  29  30  31  32 0
 6-311+G(2d,p)
 ****
 33  34 0
 6-311+G(2d,p)
 ****
 1  2  14  15  16  17  18  19  20  21  22  24  25  26  27 0
 3-21G
 ****
 35  36  37  38  39  40  41  42  43  44  45 0
 3-21G
 ****


