%nproc=1
%NoSave
%Mem=1900MB
#P OB98/GEN NMR

erre ene a

0 1
  C     -172.983     108.700     -66.991
  O     -174.045     108.170     -67.770
  P     -174.621     106.729     -67.364
  C     -176.941     107.183     -66.314
  O     -175.557     106.958     -66.079
  C     -177.759     106.891     -65.062
  O     -179.152     107.210     -65.326
  C     -177.700     105.427     -64.597
  O     -177.551     105.391     -63.171
  C     -179.084     104.895     -64.928
  O     -179.446     103.797     -64.099
  C     -179.924     106.154     -64.719
  N     -184.377     108.522     -64.946
  C     -183.156     108.981     -64.495
  N     -183.136     110.230     -63.979
  N     -182.054     108.280     -64.540
  C     -182.217     107.061     -65.110
  C     -183.372     106.498     -65.602
  C     -184.595     107.263     -65.490
  O     -185.724     106.877     -65.788
  N     -183.137     105.250     -66.119
  C     -181.845     105.055     -65.937
  N     -181.253     106.106     -65.284
  O     -173.334     105.986     -66.770
  O     -175.229     105.949     -68.477
  H     -178.984     103.011     -64.446
  H     -173.184     105.150     -67.251
  H     -185.198     109.097     -64.871
  H     -181.306     104.162     -66.228
  H     -180.023     106.376     -63.649
  H     -179.101     104.565     -65.972
  H     -183.940     110.836     -63.947
  H     -176.907     104.838     -65.066
  H     -182.246     110.593     -63.663
  H     -177.424     107.564     -64.262
  H     -177.279     106.528     -67.125
  H     -177.082     108.224     -66.621
  P     -176.538     104.283     -62.599
  C     -174.371     105.708     -62.826
  O     -175.122     104.597     -63.275
  O     -177.016     102.938     -63.319
  O     -176.544     104.170     -61.110
  H     -176.758     102.159     -62.791
  H     -174.792     106.153     -61.920
  H     -174.349     106.465     -63.613
  H     -173.348     105.383     -62.616
  H     -172.703     109.659     -67.375
  H     -172.143     108.039     -67.037
  H     -173.302     108.802     -65.975

 3  4  5  6  7  8  9  10  11  12  23  26  30  31  33  0
 6-311+G(2d,p)
 ****
 35  36  37  38 0
 6-311+G(2d,p)
 ****
 1  2  13  14  15  16  17  18  19  20  21  22  24  25  27  28  29 0
 3-21G
 ****
 32  34  39  40  41  42  43  44  45  46  47  48  49 0
 3-21G
 ****


