%nproc=1
%NoSave
%Mem=1900MB
#P OB98/GEN NMR

erre ene a

0 1
  C       11.129    -211.677    -127.629
  O       10.854    -212.980    -128.113
  P        9.560    -213.187    -129.034
  C        7.038    -212.573    -128.919
  O        8.317    -212.474    -128.308
  C        6.185    -211.342    -128.603
  O        6.680    -210.202    -129.352
  C        4.706    -211.515    -128.957
  O        3.903    -210.790    -128.012
  C        4.578    -210.811    -130.293
  O        3.236    -210.394    -130.540
  C        5.575    -209.667    -130.107
  N        4.363    -206.668    -133.993
  C        3.768    -206.780    -132.752
  N        2.645    -206.055    -132.557
  N        4.233    -207.530    -131.788
  C        5.358    -208.204    -132.131
  C        6.051    -208.162    -133.321
  C        5.517    -207.339    -134.382
  O        5.980    -207.218    -135.512
  N        7.167    -208.956    -133.279
  C        7.133    -209.512    -132.084
  N        6.036    -209.114    -131.364
  O        9.246    -214.749    -128.863
  O        9.751    -212.835    -130.469
  H        3.231    -209.968    -131.418
  H        9.513    -215.229    -129.670
  H        3.960    -206.087    -134.707
  H        7.855    -210.221    -131.704
  H        5.141    -208.847    -129.521
  H        4.883    -211.482    -131.103
  H        2.199    -205.511    -133.280
  H        4.364    -212.555    -128.997
  H        2.165    -206.153    -131.672
  H        6.303    -211.102    -127.539
  H        6.534    -213.463    -128.547
  H        7.158    -212.678    -130.004
  P        2.722    -211.621    -127.308
  C        0.630    -212.895    -128.190
  O        1.783    -212.137    -128.498
  O        1.847    -210.485    -126.597
  O        3.194    -212.662    -126.349
  H        1.364    -210.858    -125.837
  H       -0.254    -212.338    -128.514
  H        0.544    -213.104    -127.120
  H        0.673    -213.842    -128.732
  H       12.018    -211.698    -127.034
  H       10.308    -211.337    -127.033
  H       11.269    -211.012    -128.455

 3  4  5  6  7  8  9  10  11  12  23  26  30  31 0
 6-311+G(2d,p)
 ****
 33  35  36  37  38 0
 6-311+G(2d,p)
 ****
 1  2  13  14  15  16  17  18  19  20  21  22  24  25 0
 3-21G
 ****
 27  28  29  32  34  39  40  41  42  43  44  45  46  47  48  49 0
 3-21G
 ****


