%nproc=1
%NoSave
%Mem=1900MB
#P OB98/GEN NMR

erre ene a

0 1
  C      108.531     -16.341    -376.925
  O      109.160     -15.125    -376.580
  H      109.119     -16.825    -377.711
  H      107.526     -16.150    -377.307
  H      108.481     -17.011    -376.064
  P      108.596     -14.290    -375.332
  C      106.956     -12.809    -376.663
  O      107.101     -13.850    -375.701
  C      105.527     -12.777    -377.191
  O      105.250     -13.977    -377.949
  C      104.468     -12.740    -376.097
  O      104.369     -11.454    -375.509
  C      103.241     -13.193    -376.868
  O      102.657     -12.105    -377.596
  C      103.834     -14.242    -377.836
  N      103.585     -15.607    -377.385
  C      102.790     -16.396    -378.214
  O      102.320     -15.997    -379.278
  N      102.501     -17.652    -377.746
  C      102.806     -18.125    -376.501
  O      102.317     -19.149    -376.034
  C      103.695     -17.279    -375.694
  C      104.031     -16.070    -376.159
  O      109.477     -13.192    -374.834
  O      108.369     -15.411    -374.205
  H      109.105     -15.372    -373.563
  H      101.843     -12.463    -378.007
  H      101.893     -18.212    -378.324
  H      104.019     -17.646    -374.731
  H      104.660     -15.413    -375.566
  H      103.411     -14.121    -378.837
  H      102.474     -13.599    -376.203
  H      104.699     -13.487    -375.329
  H      105.420     -11.915    -377.864
  H      107.649     -13.000    -377.492
  H      107.219     -11.854    -376.194
  P      103.596     -11.254    -374.118
  C      101.417     -10.711    -375.369
  O      102.033     -11.521    -374.373
  O      103.906      -9.992    -373.394
  O      104.032     -12.536    -373.249
  H      104.336     -12.226    -372.373
  H      100.383     -10.974    -375.453
  H      101.903     -10.870    -376.309
  H      101.502      -9.681    -375.093

 6  7  8  9  10  11  12  13  14  15  16  27  31  32  33  34  35 0
 6-311+G(2d,p)
 ****
 36  37 0
 6-311+G(2d,p)
 ****
 1  2  3  4  5  17  18  19  20  21  22  23  24  25 0
 3-21G
 ****
 26  28  29  30  38  39  40  41  42  43  44  45 0
 3-21G
 ****


