%nproc=1
%NoSave
%Mem=1900MB
#P OB98/GEN NMR

erre ene a

0 1
  C     -342.333    -207.366      -7.894
  O     -341.279    -206.611      -7.328
  H     -342.384    -208.333      -7.389
  H     -342.149    -207.531      -8.958
  H     -343.287    -206.846      -7.756
  P     -341.024    -205.156      -7.954
  C     -341.846    -203.958      -5.802
  O     -342.032    -204.162      -7.196
  C     -340.903    -202.783      -5.558
  O     -341.500    -201.548      -6.012
  C     -340.528    -202.574      -4.095
  O     -339.466    -203.433      -3.712
  C     -340.123    -201.108      -4.102
  O     -338.775    -200.933      -4.586
  C     -341.137    -200.497      -5.078
  N     -343.514    -196.272      -3.663
  C     -342.330    -196.441      -4.354
  N     -341.654    -195.315      -4.667
  N     -341.847    -197.606      -4.694
  C     -342.616    -198.640      -4.285
  C     -343.816    -198.604      -3.611
  C     -344.350    -197.306      -3.266
  O     -345.426    -197.085      -2.712
  N     -344.300    -199.866      -3.392
  C     -343.379    -200.666      -3.896
  N     -342.331    -199.971      -4.434
  O     -341.653    -205.264      -9.424
  O     -339.599    -204.718      -7.997
  H     -338.733    -201.184      -5.521
  H     -341.158    -204.679     -10.026
  H     -343.840    -195.347      -3.445
  H     -343.427    -201.748      -3.891
  H     -340.705    -199.678      -5.663
  H     -340.150    -200.677      -3.099
  H     -341.789    -194.455      -4.154
  H     -341.400    -202.707      -3.445
  H     -340.772    -195.431      -5.152
  H     -340.002    -202.953      -6.163
  H     -341.409    -204.866      -5.366
  H     -342.814    -203.772      -5.332
  P     -339.026    -203.426      -2.165
  C     -340.561    -205.395      -1.427
  O     -340.272    -204.003      -1.335
  O     -339.021    -201.871      -1.788
  O     -337.710    -204.074      -1.890
  H     -338.514    -201.728      -0.965
  H     -341.413    -205.623      -0.822
  H     -339.718    -205.958      -1.083
  H     -340.768    -205.650      -2.445

 6  7  8  9  10  11  12  13  14  15  26  29  33  34 0
 6-311+G(2d,p)
 ****
 36  38  39  40  41 0
 6-311+G(2d,p)
 ****
 1  2  3  4  5  16  17  18  19  20  21  22  23  24  25 0
 3-21G
 ****
 27  28  30  31  32  35  37  42  43  44  45  46  47 0
 3-21G
 ****
 48  49 0
 3-21G
 ****


