%nproc=1
%NoSave
%Mem=1900MB
#P OB98/GEN NMR

erre ene a

0 1
  C      157.684     -79.163     199.451
  O      158.925     -79.262     200.106
  H      157.735     -79.745     198.526
  H      157.469     -78.123     199.190
  H      156.881     -79.570     200.073
  P      159.152     -78.464     201.487
  C      160.796     -76.703     200.588
  O      160.647     -77.869     201.390
  C      162.085     -75.961     200.933
  O      161.952     -75.339     202.244
  C      163.331     -76.862     200.971
  O      164.402     -76.245     200.248
  C      163.682     -76.926     202.455
  O      165.055     -77.221     202.690
  C      163.207     -75.538     202.918
  N      163.085     -75.463     204.364
  C      164.277     -75.538     205.094
  O      165.353     -75.658     204.508
  N      164.222     -75.533     206.463
  C      163.066     -75.504     207.057
  N      163.075     -75.528     208.419
  C      161.779     -75.450     206.329
  C      161.860     -75.428     204.999
  O      158.865     -79.256     202.718
  O      158.244     -77.150     201.352
  H      165.604     -76.587     202.177
  H      158.045     -76.807     202.259
  H      160.844     -75.428     206.872
  H      160.972     -75.390     204.378
  H      163.904     -74.754     202.580
  H      163.079     -77.702     202.933
  H      163.156     -77.859     200.565
  H      162.213     -75.137     200.215
  H      163.979     -75.569     208.879
  H      159.922     -76.055     200.745
  H      162.244     -75.531     208.989
  H      160.828     -77.013     199.536
  P      164.532     -76.640     198.699
  C      166.102     -78.680     199.040
  O      165.945     -77.375     198.496
  O      164.713     -75.225     197.971
  O      163.336     -77.376     198.171
  H      163.919     -75.011     197.452
  H      167.087     -79.039     198.827
  H      165.381     -79.338     198.602
  H      165.956     -78.645     200.099

 6  7  8  9  10  11  12  13  14  15  16  26  30  31  32  33  35 0
 6-311+G(2d,p)
 ****
 37  38 0
 6-311+G(2d,p)
 ****
 1  2  3  4  5  17  18  19  20  21  22  23  24  25 0
 3-21G
 ****
 27  28  29  34  36  39  40  41  42  43  44  45  46 0
 3-21G
 ****


