%nproc=1
%NoSave
%Mem=1900MB
#P OB98/GEN NMR

erre ene a

0 1
  C      -34.910    -682.486     -18.685
  O      -34.552    -682.041     -19.990
  P      -33.055    -681.493     -20.221
  C      -31.913    -683.115     -21.876
  O      -32.083    -682.743     -20.511
  C      -30.687    -684.024     -22.054
  O      -29.502    -683.283     -21.657
  C      -30.682    -685.288     -21.176
  O      -31.289    -686.467     -21.708
  C      -29.191    -685.578     -21.067
  O      -28.748    -686.303     -22.225
  C      -28.554    -684.195     -21.043
  N      -24.765    -682.539     -18.022
  C      -24.782    -682.913     -19.334
  N      -25.823    -683.358     -20.042
  C      -26.966    -683.354     -19.312
  C      -27.077    -683.008     -17.975
  C      -25.913    -682.598     -17.309
  N      -25.887    -682.228     -15.985
  N      -28.396    -683.153     -17.550
  C      -29.046    -683.613     -18.612
  N      -28.214    -683.738     -19.705
  O      -32.557    -680.512     -19.212
  O      -33.164    -680.801     -21.671
  H      -29.169    -685.866     -22.993
  H      -32.627    -679.991     -21.691
  H      -23.835    -682.861     -19.863
  H      -30.093    -683.860     -18.632
  H      -27.639    -684.147     -21.643
  H      -28.948    -686.198     -20.200
  H      -31.102    -685.080     -20.176
  H      -30.574    -684.294     -23.102
  H      -31.801    -682.230     -22.504
  H      -24.996    -681.980     -15.585
  H      -26.731    -682.307     -15.438
  H      -32.838    -683.610     -22.191
  P      -32.881    -686.664     -21.689
  C      -32.579    -686.881     -24.286
  O      -33.367    -686.424     -23.203
  O      -33.610    -685.851     -20.667
  O      -33.040    -688.241     -21.494
  H      -32.748    -688.772     -22.264
  H      -33.150    -686.818     -25.200
  H      -32.240    -687.917     -24.131
  H      -31.689    -686.227     -24.393
  H      -35.927    -682.818     -18.688
  H      -34.800    -681.679     -17.991
  H      -34.272    -683.295     -18.396

 3  4  5  6  7  8  9  10  11  12  22  25  29  30  31  32 0
 6-311+G(2d,p)
 ****
 33  36  37 0
 6-311+G(2d,p)
 ****
 1  2  13  14  15  16  17  18  19  20  21  23  24  26 0
 3-21G
 ****
 27  28  34  35  38  39  40  41  42  43  44  45  46  47  48 0
 3-21G
 ****


