%nproc=1
%NoSave
%Mem=1900MB
#P OB98/GEN NMR

erre ene a

0 1
  C       13.220    -108.502      86.683
  O       11.941    -108.472      87.286
  P       11.747    -108.729      88.857
  C       11.805    -111.254      88.370
  O       12.350    -110.191      89.138
  C       12.459    -112.590      88.725
  O       13.906    -112.447      88.691
  C       12.081    -113.140      90.108
  O       12.063    -114.566      89.983
  C       13.250    -112.698      90.968
  O       13.357    -113.441      92.174
  C       14.413    -112.863      89.979
  N       15.587    -112.098      90.384
  C       16.554    -112.778      91.130
  O       16.360    -113.942      91.484
  N       17.692    -112.109      91.506
  C       17.803    -110.842      91.248
  N       18.954    -110.233      91.641
  C       16.751    -110.058      90.575
  C       15.688    -110.745      90.160
  O       10.364    -108.512      89.369
  O       12.836    -107.771      89.533
  H       14.046    -113.021      92.735
  H       12.519    -106.833      89.529
  H       16.865    -108.995      90.432
  H       14.865    -110.257      89.656
  H       14.700    -113.920      89.893
  H       13.130    -111.641      91.236
  H       11.123    -112.772      90.480
  H       12.188    -113.315      87.948
  H       19.657    -110.811      92.087
  H       11.993    -111.040      87.314
  H       19.178    -109.275      91.417
  H       10.720    -111.302      88.514
  P       11.145    -115.475      90.932
  C       13.291    -116.161      92.151
  O       11.960    -115.699      92.293
  O       10.622    -116.723      90.300
  O        9.950    -114.502      91.378
  H        9.218    -115.034      91.746
  H       13.824    -116.008      93.094
  H       13.811    -115.617      91.356
  H       13.284    -117.229      91.914
  H       13.125    -108.307      85.635
  H       13.660    -109.467      86.828
  H       13.843    -107.755      87.130

 3  4  5  6  7  8  9  10  11  12  13  23  27  28  29  30  32 0
 6-311+G(2d,p)
 ****
 34  35 0
 6-311+G(2d,p)
 ****
 1  2  14  15  16  17  18  19  20  21  22  24  25  26 0
 3-21G
 ****
 31  33  36  37  38  39  40  41  42  43  44  45  46 0
 3-21G
 ****


