%nproc=1
%NoSave
%Mem=1900MB
#P OB98/GEN NMR

erre ene a

0 1
  C      -93.859    -470.024    -325.416
  O      -94.919    -470.958    -325.566
  P      -95.890    -470.896    -326.844
  C      -98.088    -471.389    -325.615
  O      -97.101    -471.896    -326.496
  C      -99.405    -472.161    -325.814
  O     -100.049    -471.653    -327.007
  C      -99.274    -473.670    -326.024
  O      -99.183    -474.431    -324.828
  C     -100.608    -473.966    -326.708
  O     -101.656    -474.043    -325.721
  C     -100.786    -472.753    -327.613
  N     -101.531    -475.385    -331.940
  C     -102.208    -475.355    -330.770
  N     -101.931    -474.643    -329.659
  C     -100.858    -473.845    -329.849
  C     -100.069    -473.761    -330.989
  C     -100.445    -474.580    -332.079
  N      -99.774    -474.589    -333.277
  N      -99.051    -472.859    -330.799
  C      -99.223    -472.408    -329.565
  N     -100.310    -472.973    -328.965
  O      -95.213    -471.124    -328.154
  O      -96.581    -469.459    -326.744
  H     -102.504    -474.172    -326.192
  H      -96.976    -469.218    -327.611
  H     -103.082    -476.003    -330.719
  H      -98.587    -471.675    -329.086
  H     -101.845    -472.431    -327.669
  H     -100.606    -474.937    -327.226
  H      -98.449    -473.904    -326.716
  H     -100.058    -471.942    -324.954
  H      -98.255    -470.339    -325.842
  H     -100.181    -475.091    -334.037
  H      -99.065    -473.868    -333.429
  H      -97.750    -471.469    -324.572
  P      -97.715    -474.594    -324.182
  C      -98.273    -477.157    -324.266
  O      -97.672    -476.083    -323.564
  O      -97.316    -473.505    -323.247
  O      -96.773    -474.710    -325.470
  H      -96.891    -475.504    -326.010
  H      -97.996    -478.091    -323.763
  H      -97.908    -477.202    -325.302
  H      -99.348    -477.059    -324.259
  H      -93.330    -470.228    -324.509
  H      -94.260    -469.032    -325.380
  H      -93.189    -470.108    -326.246

 3  4  5  6  7  8  9  10  11  12  22  25  29  30  31  32 0
 6-311+G(2d,p)
 ****
 33  36  37 0
 6-311+G(2d,p)
 ****
 1  2  13  14  15  16  17  18  19  20  21  23  24  26 0
 3-21G
 ****
 27  28  34  35  38  39  40  41  42  43  44  45  46  47  48 0
 3-21G
 ****


