%nproc=1
%NoSave
%Mem=1900MB
#P OB98/GEN NMR

erre ene a

0 1
  C     -735.737      97.382    -209.533
  O     -736.780      96.438    -209.686
  H     -734.846      97.054    -210.081
  H     -736.070      98.343    -209.938
  H     -735.501      97.512    -208.470
  P     -736.501      94.961    -209.123
  C     -738.970      94.870    -208.321
  O     -737.925      94.233    -209.041
  C     -740.284      94.759    -209.082
  O     -740.241      95.570    -210.275
  C     -740.631      93.345    -209.565
  O     -741.177      92.558    -208.527
  C     -741.660      93.657    -210.641
  O     -742.936      93.928    -210.030
  C     -741.096      94.941    -211.271
  N     -741.162      94.961    -216.395
  C     -742.080      95.325    -215.472
  N     -741.979      95.313    -214.133
  C     -740.773      94.883    -213.744
  C     -739.713      94.494    -214.564
  C     -739.944      94.550    -215.946
  N     -739.009      94.095    -216.883
  N     -738.632      94.096    -213.804
  C     -739.036      94.217    -212.557
  N     -740.309      94.696    -212.470
  O     -736.122      95.237    -207.579
  O     -735.423      94.204    -209.825
  H     -743.127      93.169    -209.447
  H     -735.156      95.255    -207.485
  H     -743.029      95.682    -215.876
  H     -738.427      93.972    -211.689
  H     -741.879      95.661    -211.526
  H     -741.803      92.829    -211.348
  H     -739.750      92.863    -210.039
  H     -741.091      95.159    -208.441
  H     -738.725      95.933    -208.178
  H     -739.435      93.749    -217.730
  H     -738.244      93.558    -216.482
  H     -739.056      94.392    -207.341
  P     -740.912      90.975    -208.567
  C     -740.729      91.186    -205.982
  O     -741.214      90.418    -207.092
  O     -739.307      90.891    -208.677
  O     -741.564      90.235    -209.687
  H     -739.060      90.356    -209.469
  H     -741.000      90.701    -205.067
  H     -741.162      92.164    -206.009
  H     -739.664      91.265    -206.042

 6  7  8  9  10  11  12  13  14  15  25  28  32  33  34  35 0
 6-311+G(2d,p)
 ****
 36  39  40 0
 6-311+G(2d,p)
 ****
 1  2  3  4  5  16  17  18  19  20  21  22  23  24 0
 3-21G
 ****
 26  27  29  30  31  37  38  41  42  43  44  45  46  47  48 0
 3-21G
 ****


