%nproc=1
%NoSave
%Mem=1900MB
#P OB98/GEN NMR

erre ene a

0 1
  C      -58.394    -214.587     -69.250
  O      -57.571    -215.630     -68.770
  H      -58.468    -214.674     -70.336
  H      -57.953    -213.616     -69.007
  H      -59.399    -214.656     -68.825
  P      -57.374    -215.797     -67.186
  C      -55.220    -214.435     -67.522
  O      -56.375    -214.628     -66.721
  C      -54.178    -213.607     -66.774
  O      -54.604    -212.219     -66.769
  C      -53.972    -214.043     -65.318
  O      -52.589    -213.917     -64.998
  C      -54.775    -213.022     -64.530
  O      -54.276    -212.854     -63.202
  C      -54.632    -211.772     -65.397
  N      -57.271    -209.292     -61.874
  C      -56.157    -210.094     -61.754
  N      -55.680    -210.290     -60.500
  N      -55.555    -210.660     -62.765
  C      -56.126    -210.370     -63.959
  C      -57.232    -209.593     -64.212
  C      -57.897    -208.978     -63.078
  O      -58.893    -208.273     -63.126
  N      -57.519    -209.559     -65.554
  C      -56.592    -210.319     -66.108
  N      -55.730    -210.842     -65.184
  O      -56.981    -217.165     -66.728
  O      -58.779    -215.345     -66.573
  H      -54.615    -211.992     -62.875
  H      -59.320    -216.122     -66.340
  H      -57.697    -208.889     -61.061
  H      -56.503    -210.527     -67.170
  H      -53.703    -211.224     -65.190
  H      -55.821    -213.342     -64.467
  H      -56.081    -209.869     -59.676
  H      -54.310    -215.067     -65.132
  H      -54.849    -210.856     -60.389
  H      -53.235    -213.645     -67.330
  H      -55.520    -213.910     -68.438
  H      -54.799    -215.407     -67.798
  P      -51.621    -215.173     -65.244
  C      -50.804    -215.942     -62.922
  O      -51.739    -216.153     -63.977
  O      -50.230    -214.845     -65.670
  O      -52.394    -215.993     -66.391
  H      -51.738    -216.470     -66.935
  H      -50.982    -216.651     -62.141
  H      -50.919    -214.950     -62.537
  H      -49.809    -216.066     -63.297

 6  7  8  9  10  11  12  13  14  15  26  29  33  34 0
 6-311+G(2d,p)
 ****
 36  38  39  40  41 0
 6-311+G(2d,p)
 ****
 1  2  3  4  5  16  17  18  19  20  21  22  23  24  25 0
 3-21G
 ****
 27  28  30  31  32  35  37  42  43  44  45  46  47 0
 3-21G
 ****
 48  49 0
 3-21G
 ****


