%nproc=1
%NoSave
%Mem=1900MB
#P OB98/GEN NMR

erre ene a

0 1
  C      806.150     317.072     143.545
  O      804.799     317.060     143.957
  H      806.620     316.113     143.770
  H      806.189     317.239     142.466
  H      806.691     317.879     144.047
  P      804.518     316.788     145.512
  C      804.486     314.223     145.145
  O      803.783     315.363     145.616
  C      803.671     312.959     145.413
  O      803.577     312.771     146.848
  C      802.241     312.987     144.841
  O      802.045     311.886     143.949
  C      801.343     312.789     146.054
  O      800.237     311.929     145.797
  C      802.286     312.203     147.099
  N      798.740     311.152     150.602
  C      799.173     310.451     149.532
  N      800.194     310.738     148.699
  C      800.814     311.870     149.077
  C      800.500     312.677     150.157
  C      799.398     312.289     150.933
  N      798.918     313.034     151.988
  N      801.356     313.763     150.217
  C      802.141     313.632     149.170
  N      801.840     312.513     148.441
  O      803.360     317.836     145.867
  O      805.703     316.952     146.407
  H      800.608     311.051     145.583
  H      803.588     318.311     146.687
  H      798.622     309.540     149.312
  H      802.910     314.335     148.867
  H      802.373     311.113     147.010
  H      800.957     313.765     146.371
  H      802.010     313.927     144.330
  H      804.222     312.101     145.010
  H      805.445     314.143     145.671
  H      798.051     312.744     152.412
  H      799.332     313.937     152.168
  H      804.684     314.340     144.075
  P      802.543     312.093     142.431
  C      800.271     312.766     141.351
  O      801.292     311.782     141.475
  O      803.504     310.837     142.196
  O      803.240     313.388     142.192
  H      804.171     311.050     141.517
  H      799.513     312.412     140.684
  H      800.692     313.670     140.964
  H      799.840     312.956     142.312

 6  7  8  9  10  11  12  13  14  15  25  28  32  33  34  35 0
 6-311+G(2d,p)
 ****
 36  39  40 0
 6-311+G(2d,p)
 ****
 1  2  3  4  5  16  17  18  19  20  21  22  23  24 0
 3-21G
 ****
 26  27  29  30  31  37  38  41  42  43  44  45  46  47  48 0
 3-21G
 ****


