%nproc=1
%NoSave
%Mem=1900MB
#P OB98/GEN NMR

erre ene a

0 1
  C      108.835      18.118      24.464
  O      109.053      16.821      23.958
  P      108.044      16.183      22.889
  C      109.679      16.057      20.905
  O      108.529      16.699      21.449
  C      109.264      14.831      20.097
  O      108.505      15.215      18.923
  C      110.430      14.030      19.544
  O      111.270      13.375      20.470
  C      109.732      13.163      18.508
  O      109.109      12.031      19.113
  C      108.661      14.140      17.959
  N      109.014      14.646      16.634
  C      108.293      14.116      15.571
  O      107.410      13.270      15.698
  N      108.647      14.568      14.329
  C      109.657      15.445      14.051
  O      109.949      15.772      12.905
  C      110.392      15.957      15.214
  C      110.045      15.545      16.436
  O      106.595      16.402      23.173
  O      108.471      14.639      22.856
  H      109.774      11.597      19.680
  H      109.395      14.478      22.590
  H      108.148      14.186      13.539
  H      111.190      16.665      15.029
  H      110.572      15.910      17.309
  H      107.689      13.637      17.886
  H      110.430      12.781      17.756
  H      111.087      14.717      18.991
  H      108.608      14.217      20.718
  H      110.329      15.741      21.726
  H      110.238      16.772      20.290
  P      112.598      12.583      20.052
  C      114.521      13.928      21.150
  O      113.807      13.631      19.969
  O      112.468      11.595      18.941
  O      112.939      11.793      21.409
  H      113.376      10.950      21.186
  H      115.274      14.689      20.921
  H      115.030      13.034      21.525
  H      113.849      14.324      21.915
  H      109.610      18.364      25.160
  H      107.887      18.153      24.959
  H      108.843      18.821      23.658

 3  4  5  6  7  8  9  10  11  12  13  23  28  29  30  31  32 0
 6-311+G(2d,p)
 ****
 33  34 0
 6-311+G(2d,p)
 ****
 1  2  14  15  16  17  18  19  20  21  22  24  25  26  27 0
 3-21G
 ****
 35  36  37  38  39  40  41  42  43  44  45 0
 3-21G
 ****


