%nproc=1
%NoSave
%Mem=1900MB
#P OB98/GEN NMR

erre ene a

0 1
  C       98.786    -434.994    -256.456
  O       99.751    -433.989    -256.133
  P       99.451    -432.491    -256.630
  C      101.278    -432.488    -258.498
  O      100.824    -431.956    -257.267
  C      102.565    -431.785    -258.954
  O      102.324    -430.352    -259.087
  C      103.757    -431.971    -258.006
  O      104.929    -432.085    -258.829
  C      103.781    -430.670    -257.227
  O      105.060    -430.413    -256.660
  C      103.342    -429.683    -258.314
  N      102.856    -428.420    -257.767
  C      103.804    -427.578    -257.194
  O      104.986    -427.889    -257.064
  N      103.332    -426.379    -256.726
  C      102.027    -425.984    -256.713
  O      101.659    -424.896    -256.280
  C      101.057    -426.962    -257.226
  C      101.512    -428.116    -257.720
  O       99.328    -431.716    -255.238
  O       98.251    -432.401    -257.517
  H       99.945    -432.035    -254.558
  H      104.999    -429.629    -256.075
  H      104.006    -425.741    -256.336
  H      100.006    -426.711    -257.175
  H      100.823    -428.867    -258.086
  H      104.179    -429.468    -258.993
  H      103.043    -430.707    -256.418
  H      103.663    -432.858    -257.373
  H      102.822    -432.165    -259.950
  H      100.511    -432.348    -259.270
  H      101.431    -433.565    -258.393
  P      105.458    -433.558    -259.202
  C      107.844    -433.468    -258.131
  O      107.056    -433.477    -259.296
  O      105.007    -433.634    -260.740
  O      104.886    -434.664    -258.378
  H      105.243    -432.837    -261.249
  H      108.887    -433.646    -258.414
  H      107.534    -434.251    -257.439
  H      107.776    -432.491    -257.643
  H       99.109    -435.937    -256.067
  H       98.684    -435.062    -257.519
  H       97.842    -434.735    -256.023

 3  4  5  6  7  8  9  10  11  12  13  24  28  29  30  31  32 0
 6-311+G(2d,p)
 ****
 33  34 0
 6-311+G(2d,p)
 ****
 1  2  14  15  16  17  18  19  20  21  22  23  25  26  27 0
 3-21G
 ****
 35  36  37  38  39  40  41  42  43  44  45 0
 3-21G
 ****


