%nproc=1
%NoSave
%Mem=1900MB
#P OB98/GEN NMR

erre ene a

0 1
  C      277.741     -35.106    -143.816
  O      276.984     -34.178    -144.564
  H      277.697     -34.820    -142.761
  H      278.786     -35.101    -144.135
  H      277.323     -36.110    -143.920
  P      276.985     -34.310    -146.165
  C      275.197     -36.155    -146.496
  O      276.580     -35.844    -146.434
  C      275.002     -37.598    -146.962
  O      273.601     -37.940    -147.014
  C      275.525     -37.894    -148.364
  O      276.940     -37.978    -148.432
  C      274.850     -39.231    -148.621
  O      275.536     -40.265    -147.893
  C      273.442     -38.976    -148.025
  N      272.463     -38.562    -149.031
  C      272.195     -39.477    -150.056
  O      272.764     -40.569    -150.088
  N      271.309     -39.121    -151.045
  C      270.761     -37.948    -151.026
  N      269.928     -37.627    -152.055
  C      271.001     -36.961    -149.957
  C      271.859     -37.324    -149.005
  O      278.219     -33.843    -146.867
  O      275.660     -33.542    -146.629
  H      275.160     -41.116    -148.179
  H      275.621     -33.585    -147.615
  H      270.523     -35.992    -149.991
  H      272.101     -36.647    -148.194
  H      273.069     -39.869    -147.515
  H      274.850     -39.520    -149.675
  H      275.143     -37.164    -149.088
  H      275.465     -38.253    -146.212
  H      269.818     -38.310    -152.791
  H      274.719     -35.452    -147.186
  H      269.688     -36.661    -152.259
  H      274.741     -36.050    -145.507
  P      277.611     -38.187    -149.877
  C      277.315     -35.636    -150.310
  O      277.133     -36.957    -150.789
  O      276.801     -39.435    -150.468
  O      279.091     -38.411    -149.878
  H      277.268     -40.274    -150.290
  H      276.945     -34.940    -151.034
  H      278.357     -35.458    -150.143
  H      276.780     -35.513    -149.391

 6  7  8  9  10  11  12  13  14  15  16  26  30  31  32  33  35 0
 6-311+G(2d,p)
 ****
 37  38 0
 6-311+G(2d,p)
 ****
 1  2  3  4  5  17  18  19  20  21  22  23  24  25 0
 3-21G
 ****
 27  28  29  34  36  39  40  41  42  43  44  45  46 0
 3-21G
 ****


