%nproc=1
%NoSave
%Mem=1900MB
#P OB98/GEN NMR

erre ene a

0 1
  C      467.085    -451.584    -404.281
  O      466.400    -450.900    -403.250
  H      466.897    -452.655    -404.180
  H      468.163    -451.400    -404.193
  H      466.730    -451.249    -405.261
  P      466.400    -449.292    -403.321
  C      463.887    -449.283    -404.098
  O      465.230    -448.910    -404.350
  C      462.921    -448.277    -404.711
  O      463.060    -447.005    -404.023
  C      463.155    -448.027    -406.210
  O      461.897    -447.804    -406.840
  C      463.952    -446.729    -406.221
  O      463.841    -446.043    -407.468
  C      463.350    -445.995    -405.014
  N      464.239    -444.957    -404.480
  C      464.052    -443.661    -404.968
  O      463.177    -443.428    -405.806
  N      464.878    -442.658    -404.527
  C      465.855    -442.950    -403.714
  N      466.662    -441.914    -403.329
  C      466.118    -444.309    -403.207
  C      465.275    -445.254    -403.630
  O      467.741    -449.005    -404.147
  O      466.325    -448.617    -401.994
  H      462.938    -445.664    -407.534
  H      467.853    -449.585    -404.914
  H      466.955    -444.498    -402.548
  H      465.386    -446.283    -403.301
  H      462.402    -445.523    -405.285
  H      465.016    -446.931    -406.047
  H      463.680    -448.856    -406.694
  H      461.891    -448.624    -404.535
  H      466.460    -441.003    -403.717
  H      463.707    -449.350    -403.018
  H      467.478    -442.035    -402.751
  H      463.730    -450.282    -404.523
  P      461.414    -448.799    -408.007
  C      459.591    -449.975    -406.593
  O      460.793    -450.121    -407.358
  O      462.403    -449.028    -409.099
  O      460.111    -448.053    -408.579
  H      460.133    -448.134    -409.558
  H      459.288    -450.931    -406.220
  H      458.819    -449.574    -407.215
  H      459.769    -449.312    -405.773

 6  7  8  9  10  11  12  13  14  15  16  26  30  31  32  33  35 0
 6-311+G(2d,p)
 ****
 37  38 0
 6-311+G(2d,p)
 ****
 1  2  3  4  5  17  18  19  20  21  22  23  24  25 0
 3-21G
 ****
 27  28  29  34  36  39  40  41  42  43  44  45  46 0
 3-21G
 ****


