%nproc=1
%NoSave
%Mem=1900MB
#P OB98/GEN NMR

erre ene a

0 1
  C     -280.759     133.103    -188.511
  O     -280.146     134.384    -188.437
  P     -280.969     135.583    -187.760
  C     -282.649     137.344    -188.653
  O     -282.064     136.066    -188.833
  C     -282.771     138.091    -189.980
  O     -281.437     138.455    -190.445
  C     -283.436     137.291    -191.104
  O     -284.152     138.223    -191.925
  C     -282.253     136.749    -191.889
  O     -282.612     136.378    -193.214
  C     -281.293     137.927    -191.778
  N     -277.683     137.210    -195.341
  C     -278.961     137.642    -195.428
  N     -279.858     137.805    -194.433
  C     -279.322     137.478    -193.246
  C     -278.053     136.985    -193.002
  C     -277.201     136.862    -194.117
  N     -275.898     136.432    -194.033
  N     -277.873     136.730    -191.659
  C     -279.019     137.060    -191.099
  N     -279.919     137.533    -192.014
  O     -279.903     136.779    -187.750
  O     -281.488     135.305    -186.392
  H     -283.229     135.619    -193.165
  H     -279.639     136.977    -186.831
  H     -279.302     137.888    -196.424
  H     -279.253     136.969    -190.045
  H     -281.539     138.730    -192.487
  H     -281.851     135.861    -191.386
  H     -284.107     136.500    -190.751
  H     -283.310     139.030    -189.806
  H     -282.014     137.927    -187.978
  H     -275.314     136.502    -194.849
  H     -275.475     136.351    -193.113
  H     -283.635     137.237    -188.188
  P     -285.347     137.632    -192.822
  C     -285.539     136.615    -195.202
  O     -284.685     137.084    -194.168
  O     -286.135     138.949    -193.293
  O     -286.245     136.686    -192.095
  H     -287.069     138.740    -193.457
  H     -285.068     136.835    -196.164
  H     -286.520     137.095    -195.164
  H     -285.656     135.534    -195.106
  H     -280.091     132.415    -188.985
  H     -281.662     133.172    -189.080
  H     -280.985     132.758    -187.524

 3  4  5  6  7  8  9  10  11  12  22  25  29  30  31  32 0
 6-311+G(2d,p)
 ****
 33  36  37 0
 6-311+G(2d,p)
 ****
 1  2  13  14  15  16  17  18  19  20  21  23  24  26 0
 3-21G
 ****
 27  28  34  35  38  39  40  41  42  43  44  45  46  47  48 0
 3-21G
 ****


