%nproc=1
%NoSave
%Mem=1900MB
#P OB98/GEN NMR

erre ene a

0 1
  C      171.058      24.727     104.848
  O      170.017      25.559     104.378
  H      171.422      25.086     105.815
  H      170.670      23.712     104.974
  H      171.880      24.705     104.127
  P      170.372      27.108     104.161
  C      170.953      26.402     101.725
  O      171.335      27.142     102.876
  C      172.008      26.579     100.639
  O      171.741      25.684      99.536
  C      172.043      27.979     100.038
  O      172.783      28.894     100.828
  C      172.741      27.703      98.717
  O      174.152      27.535      98.938
  C      172.102      26.367      98.304
  N      169.872      29.156      94.637
  C      171.097      29.224      95.203
  N      171.622      28.430      96.158
  C      170.747      27.480      96.521
  C      169.467      27.282      96.028
  C      169.028      28.179      95.041
  N      167.769      28.133      94.485
  N      168.863      26.214      96.663
  C      169.771      25.767      97.507
  N      170.914      26.520      97.482
  O      171.371      27.443     105.366
  O      169.211      28.041     104.087
  H      174.495      27.002      98.196
  H      171.475      28.409     105.463
  H      171.737      30.023      94.842
  H      169.645      24.915      98.163
  H      172.796      25.720      97.755
  H      172.622      28.517      97.998
  H      171.033      28.355      99.836
  H      172.984      26.307     101.059
  H      169.988      26.775     101.365
  H      167.497      28.906      93.897
  H      167.086      27.506      94.883
  H      170.856      25.345     101.987
  P      172.566      30.461     100.548
  C      170.433      30.588     102.025
  O      170.996      30.740     100.727
  O      172.783      30.574      98.968
  O      173.479      31.361     101.311
  H      173.170      31.438      98.731
  H      169.386      30.806     101.987
  H      170.914      31.262     102.703
  H      170.576      29.582     102.360

 6  7  8  9  10  11  12  13  14  15  25  28  32  33  34  35 0
 6-311+G(2d,p)
 ****
 36  39  40 0
 6-311+G(2d,p)
 ****
 1  2  3  4  5  16  17  18  19  20  21  22  23  24 0
 3-21G
 ****
 26  27  29  30  31  37  38  41  42  43  44  45  46  47 0
 3-21G
 ****
 48 0
 3-21G
 ****


