%nproc=1
%NoSave
%Mem=1900MB
#P OB98/GEN NMR

erre ene a

0 1
  C     -285.490    -247.807    -125.731
  O     -285.390    -246.450    -125.344
  H     -285.176    -248.458    -124.912
  H     -286.532    -248.024    -125.975
  H     -284.874    -247.991    -126.616
  P     -283.947    -245.958    -124.842
  C     -284.274    -246.627    -122.356
  O     -283.577    -246.867    -123.571
  C     -283.615    -247.389    -121.211
  O     -283.803    -248.809    -121.380
  C     -282.110    -247.191    -121.100
  O     -281.776    -245.955    -120.479
  C     -281.734    -248.379    -120.220
  O     -282.006    -248.066    -118.842
  C     -282.696    -249.470    -120.713
  N     -278.766    -252.677    -121.522
  C     -279.078    -251.878    -120.474
  N     -280.130    -251.045    -120.335
  C     -280.924    -251.094    -121.418
  C     -280.737    -251.861    -122.556
  C     -279.589    -252.676    -122.592
  N     -279.278    -253.475    -123.671
  N     -281.765    -251.659    -123.453
  C     -282.563    -250.789    -122.867
  N     -282.090    -250.412    -121.636
  O     -284.245    -244.521    -124.193
  O     -282.896    -245.871    -125.900
  H     -281.334    -247.414    -118.566
  H     -283.490    -243.932    -124.370
  H     -278.385    -251.912    -119.637
  H     -283.485    -250.408    -123.292
  H     -283.119    -250.037    -119.879
  H     -280.679    -248.647    -120.291
  H     -281.621    -247.294    -122.076
  H     -284.114    -247.090    -120.277
  H     -285.313    -246.968    -122.464
  H     -278.566    -254.177    -123.559
  H     -279.910    -253.474    -124.467
  H     -284.269    -245.555    -122.153
  P     -280.458    -245.197    -121.000
  C     -278.932    -245.639    -118.943
  O     -279.224    -245.953    -120.300
  O     -280.520    -243.795    -120.225
  O     -280.376    -245.012    -122.478
  H     -280.027    -243.118    -120.728
  H     -278.092    -246.216    -118.616
  H     -279.781    -245.868    -118.333
  H     -278.704    -244.597    -118.859

 6  7  8  9  10  11  12  13  14  15  25  28  32  33  34  35 0
 6-311+G(2d,p)
 ****
 36  39  40 0
 6-311+G(2d,p)
 ****
 1  2  3  4  5  16  17  18  19  20  21  22  23  24 0
 3-21G
 ****
 26  27  29  30  31  37  38  41  42  43  44  45  46  47  48 0
 3-21G
 ****


