%nproc=1
%NoSave
%Mem=1900MB
#P OB98/GEN NMR

erre ene a

0 1
  C      106.375    -228.479     132.133
  O      107.150    -227.538     131.402
  P      107.791    -228.023     130.009
  C      110.191    -228.393     130.937
  O      109.008    -228.987     130.410
  C      111.181    -229.467     131.376
  O      110.542    -230.394     132.275
  C      111.742    -230.312     130.243
  O      112.814    -229.669     129.573
  C      112.244    -231.525     131.008
  O      113.512    -231.225     131.621
  C      111.164    -231.695     132.084
  N      108.854    -236.035     133.479
  C      109.887    -235.355     134.017
  N      110.451    -234.212     133.580
  C      109.867    -233.794     132.444
  C      108.826    -234.405     131.761
  C      108.302    -235.577     132.329
  N      107.229    -236.257     131.798
  N      108.497    -233.685     130.634
  C      109.311    -232.652     130.640
  N      110.153    -232.667     131.720
  O      108.525    -226.705     129.473
  O      106.816    -228.567     129.022
  H      113.335    -230.597     132.348
  H      108.633    -226.756     128.506
  H      110.311    -235.780     134.922
  H      109.324    -231.868     129.895
  H      111.581    -231.999     133.050
  H      112.396    -232.399     130.370
  H      110.952    -230.621     129.547
  H      111.994    -228.971     131.924
  H      109.924    -227.777     131.802
  H      106.800    -236.973     132.359
  H      106.697    -235.802     131.060
  H      110.638    -227.749     130.172
  P      112.872    -229.832     127.975
  C      114.706    -231.672     127.990
  O      113.359    -231.336     127.721
  O      114.134    -228.939     127.568
  O      111.626    -229.413     127.275
  H      114.048    -228.630     126.647
  H      114.790    -232.758     128.064
  H      115.044    -231.230     128.931
  H      115.345    -231.326     127.170
  H      106.014    -228.023     133.031
  H      106.982    -229.325     132.381
  H      105.546    -228.798     131.537

 3  4  5  6  7  8  9  10  11  12  22  25  29  30  31  32 0
 6-311+G(2d,p)
 ****
 33  36  37 0
 6-311+G(2d,p)
 ****
 1  2  13  14  15  16  17  18  19  20  21  23  24  26 0
 3-21G
 ****
 27  28  34  35  38  39  40  41  42  43  44  45  46  47  48 0
 3-21G
 ****


