%nproc=1
%NoSave
%Mem=1900MB
#P OB98/GEN NMR

erre ene a

0 1
  C      262.160     389.143      -3.565
  O      261.217     388.115      -3.337
  H      261.965     389.581      -4.546
  H      263.177     388.737      -3.557
  H      262.065     389.925      -2.806
  P      261.313     387.279      -1.974
  C      259.607     388.980      -1.038
  O      260.813     388.265      -0.808
  C      259.369     389.987       0.082
  O      258.198     390.780      -0.197
  C      259.138     389.353       1.457
  O      260.376     389.010       2.060
  C      258.437     390.496       2.174
  O      259.404     391.492       2.557
  C      257.523     391.051       1.065
  N      252.543     391.959       1.416
  C      253.614     392.797       1.655
  N      253.318     394.044       2.080
  N      254.865     392.442       1.508
  C      255.011     391.145       1.146
  C      254.030     390.214       0.898
  C      252.649     390.642       1.000
  O      251.669     389.936       0.772
  N      254.562     388.976       0.647
  C      255.866     389.171       0.694
  N      256.192     390.471       1.003
  O      262.631     386.625      -1.694
  O      260.123     386.213      -2.079
  H      259.912     391.127       3.304
  H      260.434     385.375      -2.472
  H      251.602     392.290       1.555
  H      256.618     388.411       0.509
  H      257.393     392.135       1.144
  H      257.927     390.174       3.082
  H      252.388     394.329       2.356
  H      258.458     388.499       1.395
  H      254.095     394.654       2.319
  H      260.222     390.674       0.105
  H      258.795     388.250      -1.078
  H      259.649     389.504      -2.000
  P      260.445     388.024       3.324
  C      260.381     386.088       1.613
  O      259.855     386.628       2.811
  O      259.809     388.552       4.566
  O      262.000     387.691       3.478
  H      262.490     388.367       4.008
  H      259.895     385.160       1.396
  H      261.432     385.922       1.728
  H      260.214     386.774       0.809

 6  7  8  9  10  11  12  13  14  15  26  29  33  34 0
 6-311+G(2d,p)
 ****
 36  38  39  40  41 0
 6-311+G(2d,p)
 ****
 1  2  3  4  5  16  17  18  19  20  21  22  23  24  25 0
 3-21G
 ****
 27  28  30  31  32  35  37  42  43  44  45  46  47 0
 3-21G
 ****
 48  49 0
 3-21G
 ****


