%nproc=1
%NoSave
%Mem=1900MB
#P OB98/GEN NMR

erre ene a

0 1
  C       67.242     455.814    -133.060
  O       67.101     455.003    -134.209
  H       67.755     455.258    -132.268
  H       67.844     456.689    -133.320
  H       66.263     456.151    -132.706
  P       66.217     453.673    -134.044
  C       64.066     455.116    -133.924
  O       64.865     454.120    -133.305
  C       62.666     454.576    -134.203
  O       62.095     454.025    -132.994
  C       61.663     455.614    -134.694
  O       61.820     455.880    -136.077
  C       60.351     454.900    -134.407
  O       60.091     453.927    -135.436
  C       60.654     454.189    -133.080
  N       56.752     454.928    -129.845
  C       56.930     454.059    -130.869
  N       58.003     453.908    -131.670
  C       58.978     454.764    -131.319
  C       58.958     455.689    -130.289
  C       57.771     455.762    -129.530
  N       57.583     456.703    -128.529
  N       60.145     456.400    -130.240
  C       60.857     455.921    -131.240
  N       60.199     454.930    -131.913
  O       67.017     452.855    -132.914
  O       66.044     452.868    -135.288
  H       60.752     453.216    -135.327
  H       67.593     452.197    -133.345
  H       56.086     453.403    -131.072
  H       61.843     456.266    -131.516
  H       60.214     453.187    -133.032
  H       59.488     455.577    -134.372
  H       61.709     456.533    -134.094
  H       62.760     453.755    -134.925
  H       64.527     455.421    -134.870
  H       56.609     456.967    -128.399
  H       58.266     457.452    -128.523
  H       64.013     455.984    -133.260
  P       61.193     457.242    -136.652
  C       62.926     458.978    -135.837
  O       61.638     458.412    -135.643
  O       59.622     457.061    -136.361
  O       61.446     457.500    -138.099
  H       59.124     457.155    -137.192
  H       63.095     459.739    -135.104
  H       62.984     459.406    -136.816
  H       63.670     458.215    -135.737

 6  7  8  9  10  11  12  13  14  15  25  28  32  33  34  35 0
 6-311+G(2d,p)
 ****
 36  39  40 0
 6-311+G(2d,p)
 ****
 1  2  3  4  5  16  17  18  19  20  21  22  23  24 0
 3-21G
 ****
 26  27  29  30  31  37  38  41  42  43  44  45  46  47  48 0
 3-21G
 ****


