%nproc=1
%NoSave
%Mem=1900MB
#P OB98/GEN NMR

erre ene a

0 1
  C      -44.361    -305.187     282.212
  O      -43.858    -304.954     280.911
  H      -43.763    -304.618     282.928
  H      -44.286    -306.250     282.455
  H      -45.404    -304.860     282.285
  P      -44.724    -305.499     279.677
  C      -46.778    -304.207     278.745
  O      -46.199    -304.884     279.849
  C      -48.166    -303.688     279.121
  O      -49.021    -304.828     279.420
  C      -48.177    -302.769     280.349
  O      -49.167    -301.755     280.146
  C      -48.632    -303.691     281.464
  O      -49.217    -303.015     282.570
  C      -49.619    -304.589     280.712
  N      -49.881    -305.844     281.412
  C      -50.792    -305.812     282.464
  O      -51.451    -304.829     282.791
  N      -50.932    -306.986     283.159
  C      -50.254    -308.148     282.925
  O      -50.407    -309.161     283.599
  C      -49.299    -308.117     281.807
  C      -49.159    -306.984     281.116
  O      -44.924    -307.046     280.034
  O      -44.117    -305.294     278.329
  H      -44.195    -307.579     279.664
  H      -49.981    -302.506     282.230
  H      -51.586    -306.983     283.926
  H      -48.734    -309.018     281.600
  H      -48.446    -306.922     280.296
  H      -50.565    -304.056     280.541
  H      -47.780    -304.274     281.837
  H      -47.212    -302.301     280.568
  H      -48.600    -303.181     278.250
  H      -46.873    -304.898     277.903
  H      -46.126    -303.377     278.448
  P      -48.679    -300.362     279.511
  C      -47.849    -300.366     277.024
  O      -48.933    -300.499     277.935
  O      -47.096    -300.487     279.674
  O      -49.296    -299.173     280.170
  H      -46.772    -301.397     279.561
  H      -48.207    -300.487     276.023
  H      -47.114    -301.115     277.233
  H      -47.410    -299.396     277.131

 6  7  8  9  10  11  12  13  14  15  16  27  31  32  33  34  35 0
 6-311+G(2d,p)
 ****
 36  37 0
 6-311+G(2d,p)
 ****
 1  2  3  4  5  17  18  19  20  21  22  23  24  25 0
 3-21G
 ****
 26  28  29  30  38  39  40  41  42  43  44  45 0
 3-21G
 ****


