%nproc=1
%NoSave
%Mem=1900MB
#P OB98/GEN NMR

erre ene a

0 1
  C     -816.264     877.797      -8.022
  O     -815.371     877.268      -7.048
  P     -813.980     878.034      -6.795
  C     -813.420     879.753      -4.854
  O     -813.887     878.478      -5.262
  C     -812.197     879.573      -3.939
  O     -812.512     878.684      -2.852
  C     -810.985     878.989      -4.660
  O     -810.207     879.992      -5.286
  C     -810.262     878.278      -3.530
  O     -809.540     879.229      -2.720
  C     -811.453     877.692      -2.737
  N     -811.991     876.376      -3.159
  C     -811.604     875.218      -2.477
  O     -810.815     875.199      -1.533
  N     -812.165     874.046      -2.924
  C     -813.174     873.935      -3.832
  O     -813.676     872.862      -4.152
  C     -813.643     875.192      -4.410
  C     -813.042     876.333      -4.063
  O     -814.142     879.408      -7.585
  O     -812.766     877.271      -7.236
  H     -809.382     878.817      -1.857
  H     -813.504     879.456      -8.320
  H     -811.836     873.192      -2.496
  H     -814.480     875.151      -5.107
  H     -813.390     877.270      -4.490
  H     -811.195     877.598      -1.675
  H     -809.526     877.580      -3.914
  H     -811.303     878.234      -5.386
  H     -811.936     880.559      -3.513
  H     -814.206     880.304      -4.330
  H     -813.152     880.348      -5.737
  P     -810.424     880.315      -6.842
  C     -811.471     882.346      -8.024
  O     -811.519     881.501      -6.892
  O     -810.700     879.145      -7.728
  O     -809.073     881.084      -7.261
  H     -808.431     880.457      -7.670
  H     -812.362     882.989      -8.017
  H     -811.481     881.746      -8.940
  H     -810.582     882.968      -7.988
  H     -817.138     877.183      -8.075
  H     -815.781     877.814      -8.977
  H     -816.544     878.792      -7.746

 3  4  5  6  7  8  9  10  11  12  13  23  28  29  30  31  32 0
 6-311+G(2d,p)
 ****
 33  34 0
 6-311+G(2d,p)
 ****
 1  2  14  15  16  17  18  19  20  21  22  24  25  26  27 0
 3-21G
 ****
 35  36  37  38  39  40  41  42  43  44  45 0
 3-21G
 ****


