%nproc=1
%NoSave
%Mem=1900MB
#P OB98/GEN NMR

erre ene a

0 1
  C     -361.796      82.378    -148.807
  O     -362.399      81.150    -148.421
  P     -363.798      81.193    -147.636
  C     -363.606      78.947    -146.235
  O     -363.678      80.358    -146.278
  C     -363.406      78.494    -144.779
  O     -362.039      78.722    -144.372
  C     -364.303      79.230    -143.789
  O     -365.574      78.617    -143.666
  C     -363.477      79.170    -142.516
  O     -363.585      77.872    -141.909
  C     -362.048      79.390    -143.078
  N     -361.579      80.786    -143.260
  C     -361.562      81.662    -142.182
  O     -361.927      81.363    -141.038
  N     -361.099      82.925    -142.435
  C     -360.499      83.347    -143.584
  O     -360.050      84.480    -143.738
  C     -360.405      82.349    -144.648
  C     -360.951      81.136    -144.450
  O     -364.771      80.311    -148.542
  O     -364.330      82.571    -147.414
  H     -364.530      77.705    -141.745
  H     -365.492      80.860    -148.907
  H     -361.144      83.594    -141.681
  H     -359.896      82.625    -145.566
  H     -360.888      80.388    -145.228
  H     -361.307      78.893    -142.442
  H     -363.842      79.879    -141.781
  H     -364.400      80.288    -144.080
  H     -363.599      77.411    -144.728
  H     -362.785      78.584    -146.857
  H     -364.525      78.515    -146.643
  P     -366.897      79.437    -144.069
  C     -367.136      80.244    -141.644
  O     -367.005      80.626    -143.000
  O     -368.134      78.627    -144.264
  O     -366.466      80.208    -145.404
  H     -366.750      79.705    -146.207
  H     -367.042      81.140    -141.016
  H     -366.352      79.528    -141.370
  H     -368.117      79.792    -141.478
  H     -360.876      82.179    -149.317
  H     -361.601      82.969    -147.936
  H     -362.457      82.911    -149.459

 3  4  5  6  7  8  9  10  11  12  13  23  28  29  30  31  32 0
 6-311+G(2d,p)
 ****
 33  34 0
 6-311+G(2d,p)
 ****
 1  2  14  15  16  17  18  19  20  21  22  24  25  26  27 0
 3-21G
 ****
 35  36  37  38  39  40  41  42  43  44  45 0
 3-21G
 ****


