%nproc=1
%NoSave
%Mem=1900MB
#P OB98/GEN NMR

erre ene a

0 1
  C     -145.747    -252.722     257.518
  O     -145.579    -254.004     256.915
  P     -146.711    -255.134     256.848
  C     -146.593    -255.995     259.342
  O     -147.327    -255.315     258.322
  C     -147.542    -256.529     260.429
  O     -146.766    -257.312     261.387
  C     -148.246    -255.402     261.213
  O     -149.623    -255.658     261.482
  C     -147.331    -255.228     262.422
  O     -147.964    -254.562     263.515
  C     -146.858    -256.654     262.679
  N     -144.414    -257.213     267.131
  C     -145.763    -257.072     266.889
  N     -146.564    -257.049     267.964
  N     -146.267    -256.937     265.696
  C     -145.336    -256.882     264.703
  C     -143.983    -257.019     264.828
  C     -143.417    -257.217     266.145
  O     -142.239    -257.379     266.428
  N     -143.351    -256.923     263.595
  C     -144.345    -256.731     262.746
  N     -145.575    -256.712     263.381
  O     -146.350    -256.374     256.112
  O     -147.918    -254.434     256.041
  H     -147.256    -254.199     264.087
  H     -148.373    -255.142     255.541
  H     -144.073    -257.349     268.073
  H     -144.228    -256.628     261.680
  H     -147.562    -257.213     263.294
  H     -146.482    -254.586     262.109
  H     -146.251    -257.024     268.919
  H     -148.261    -254.473     260.632
  H     -147.530    -256.722     267.802
  H     -148.280    -257.198     259.958
  H     -145.926    -255.233     259.774
  H     -145.983    -256.790     258.916
  P     -150.917    -255.057     260.737
  C     -150.875    -252.728     261.835
  O     -150.725    -253.448     260.625
  O     -152.106    -255.199     261.794
  O     -151.261    -255.736     259.441
  H     -152.794    -255.790     261.407
  H     -150.979    -251.664     261.570
  H     -149.969    -252.841     262.452
  H     -151.737    -253.063     262.394
  H     -144.840    -252.163     257.425
  H     -145.987    -252.844     258.554
  H     -146.541    -252.198     257.027

 3  4  5  6  7  8  9  10  11  12  23  26  30  31 0
 6-311+G(2d,p)
 ****
 33  35  36  37  38 0
 6-311+G(2d,p)
 ****
 1  2  13  14  15  16  17  18  19  20  21  22  24  25 0
 3-21G
 ****
 27  28  29  32  34  39  40  41  42  43  44  45  46  47  48  49 0
 3-21G
 ****


