%nproc=1
%NoSave
%Mem=1900MB
#P OB98/GEN NMR

erre ene a

0 1
  C       96.388     379.872      41.174
  O       97.159     380.467      40.152
  H       96.300     378.800      40.971
  H       95.388     380.310      41.193
  H       96.874     380.009      42.144
  P       97.407     382.047      40.259
  C       99.799     382.288      39.282
  O       98.403     382.427      39.054
  C      100.238     380.845      39.031
  O      100.085     380.545      37.616
  C      101.701     380.569      39.408
  O      101.792     379.255      39.969
  C      102.410     380.582      38.065
  O      103.631     379.853      38.094
  C      101.332     379.976      37.172
  N      104.090     378.615      33.188
  C      104.052     378.101      34.471
  N      104.878     377.068      34.738
  N      103.272     378.564      35.412
  C      102.479     379.583      34.998
  C      102.429     380.187      33.766
  C      103.313     379.679      32.736
  O      103.410     380.107      31.592
  N      101.518     381.213      33.754
  C      101.017     381.226      34.977
  N      101.568     380.254      35.766
  O       98.332     382.194      41.557
  O       96.177     382.888      40.345
  H      103.412     378.902      38.185
  H       98.176     383.050      42.001
  H      104.717     378.228      32.506
  H      100.264     381.914      35.339
  H      101.269     378.884      37.274
  H      102.631     381.613      37.766
  H      105.482     376.637      34.055
  H      102.117     381.297      40.107
  H      104.856     376.666      35.669
  H       99.559     380.174      39.570
  H      100.018     382.561      40.319
  H      100.340     382.962      38.611
  P      102.948     378.987      41.047
  C      102.253     377.519      43.073
  O      102.698     377.554      41.724
  O      102.589     380.019      42.219
  O      104.327     379.219      40.526
  H      103.238     380.746      42.227
  H      102.132     376.502      43.382
  H      101.316     378.030      43.153
  H      102.976     377.999      43.700

 6  7  8  9  10  11  12  13  14  15  26  29  33  34 0
 6-311+G(2d,p)
 ****
 36  38  39  40  41 0
 6-311+G(2d,p)
 ****
 1  2  3  4  5  16  17  18  19  20  21  22  23  24  25 0
 3-21G
 ****
 27  28  30  31  32  35  37  42  43  44  45  46  47 0
 3-21G
 ****
 48  49 0
 3-21G
 ****


