%nproc=1
%NoSave
%Mem=1900MB
#P OB98/GEN NMR

erre ene a

0 1
  C       64.705      18.000    -156.203
  O       64.436      16.605    -156.375
  P       64.860      15.620    -155.184
  C       62.458      14.667    -154.864
  O       63.571      15.332    -154.278
  C       61.289      14.627    -153.878
  O       60.703      15.931    -153.711
  C       60.149      13.734    -154.337
  O       60.460      12.373    -154.110
  C       58.986      14.248    -153.498
  O       58.885      13.551    -152.245
  C       59.348      15.733    -153.271
  N       58.436      16.642    -153.945
  C       57.773      17.561    -153.125
  O       57.959      17.553    -151.906
  N       56.898      18.445    -153.704
  C       56.686      18.397    -154.982
  N       55.804      19.294    -155.498
  C       57.345      17.425    -155.878
  C       58.198      16.584    -155.298
  O       65.771      16.545    -154.249
  O       65.597      14.403    -155.640
  H       58.263      14.076    -151.702
  H       66.468      16.014    -153.824
  H       57.130      17.418    -156.936
  H       58.727      15.835    -155.878
  H       59.330      15.970    -152.201
  H       58.030      14.109    -154.013
  H       59.943      13.907    -155.401
  H       61.667      14.282    -152.905
  H       55.369      19.945    -154.855
  H       62.737      13.652    -155.153
  H       55.560      19.342    -156.476
  H       62.179      15.190    -155.784
  P       61.049      11.529    -155.335
  C       63.124      11.025    -153.910
  O       62.640      11.551    -155.131
  O       60.862      12.543    -156.563
  O       60.432      10.199    -155.611
  H       61.100      12.105    -157.399
  H       64.207      10.907    -153.985
  H       62.678      10.049    -153.707
  H       62.901      11.717    -153.094
  H       64.373      18.536    -157.067
  H       65.757      18.147    -156.074
  H       64.186      18.359    -155.339

 3  4  5  6  7  8  9  10  11  12  13  21  23  27  28  29  30  32 0
 6-311+G(2d,p)
 ****
 34  35 0
 6-311+G(2d,p)
 ****
 1  2  14  15  16  17  18  19  20  22  24  25  26 0
 3-21G
 ****
 31  33  36  37  38  39  40  41  42  43  44  45  46 0
 3-21G
 ****


