%nproc=1
%NoSave
%Mem=1900MB
#P OB98/GEN NMR

erre ene a

0 1
  C      146.996    -348.069     434.899
  O      146.576    -349.125     434.063
  H      146.448    -348.129     435.841
  H      146.762    -347.114     434.418
  H      148.068    -348.127     435.108
  P      147.499    -349.543     432.824
  C      147.897    -348.744     430.405
  O      147.170    -348.543     431.606
  C      147.799    -347.531     429.469
  O      146.444    -347.395     428.983
  C      148.129    -346.224     430.181
  O      149.506    -345.907     430.261
  C      147.381    -345.201     429.315
  O      148.181    -344.801     428.190
  C      146.155    -345.986     428.851
  N      142.671    -342.448     430.056
  C      143.809    -342.315     429.284
  N      144.082    -341.075     428.817
  N      144.610    -343.317     429.007
  C      144.257    -344.476     429.613
  C      143.160    -344.721     430.417
  C      142.251    -343.618     430.664
  O      141.233    -343.680     431.353
  N      143.141    -346.018     430.853
  C      144.255    -346.545     430.381
  N      144.954    -345.651     429.598
  O      146.855    -350.925     432.320
  O      148.959    -349.712     433.138
  H      147.606    -344.332     427.554
  H      147.533    -351.462     431.875
  H      142.072    -341.648     430.209
  H      144.587    -347.566     430.544
  H      145.936    -345.802     427.787
  H      147.148    -344.294     429.874
  H      143.559    -340.258     429.100
  H      147.689    -346.210     431.183
  H      145.029    -340.887     428.484
  H      148.438    -347.691     428.595
  H      147.480    -349.624     429.919
  H      148.950    -348.963     430.626
  P      150.041    -344.910     431.398
  C      150.931    -342.456     431.411
  O      150.288    -343.488     430.688
  O      151.519    -345.456     431.682
  O      149.213    -344.867     432.632
  H      151.506    -346.045     432.464
  H      151.014    -341.586     430.794
  H      151.908    -342.780     431.703
  H      150.358    -342.221     432.283

 6  7  8  9  10  11  12  13  14  15  26  29  33  34 0
 6-311+G(2d,p)
 ****
 36  38  39  40  41 0
 6-311+G(2d,p)
 ****
 1  2  3  4  5  16  17  18  19  20  21  22  23  24  25 0
 3-21G
 ****
 27  28  30  31  32  35  37  42  43  44  45  46  47 0
 3-21G
 ****
 48  49 0
 3-21G
 ****


