%nproc=1
%NoSave
%Mem=1900MB
#P OB98/GEN NMR

erre ene a

0 1
  C     -561.525    -135.227    -201.656
  O     -561.930    -136.420    -201.016
  P     -561.198    -137.785    -201.458
  C     -560.271    -138.255    -199.076
  O     -559.972    -137.989    -200.442
  C     -559.323    -139.303    -198.493
  O     -559.574    -140.573    -199.144
  C     -557.838    -138.968    -198.665
  O     -557.155    -139.411    -197.493
  C     -557.418    -139.831    -199.835
  O     -556.014    -140.095    -199.820
  C     -558.312    -141.062    -199.645
  N     -558.487    -141.819    -200.883
  C     -557.474    -142.720    -201.220
  O     -556.459    -142.797    -200.526
  N     -557.615    -143.479    -202.352
  C     -558.621    -143.274    -203.143
  N     -558.721    -144.052    -204.257
  C     -559.648    -142.241    -202.886
  C     -559.530    -141.572    -201.740
  O     -560.484    -137.379    -202.827
  O     -562.114    -138.954    -201.621
  H     -555.770    -140.367    -198.906
  H     -560.441    -138.139    -203.438
  H     -560.448    -142.087    -203.596
  H     -560.247    -140.819    -201.460
  H     -557.891    -141.732    -198.884
  H     -557.660    -139.323    -200.779
  H     -557.660    -137.900    -198.813
  H     -559.565    -139.430    -197.432
  H     -557.996    -144.741    -204.415
  H     -561.293    -138.638    -199.004
  H     -559.470    -143.963    -204.926
  H     -560.215    -137.321    -198.507
  P     -556.171    -138.373    -196.768
  C     -558.232    -137.305    -195.667
  O     -557.084    -137.088    -196.457
  O     -555.290    -137.849    -198.005
  O     -555.303    -138.872    -195.661
  H     -554.602    -137.246    -197.681
  H     -558.676    -136.338    -195.424
  H     -557.969    -137.818    -194.743
  H     -558.962    -137.897    -196.231
  H     -562.090    -134.405    -201.268
  H     -561.695    -135.312    -202.709
  H     -560.483    -135.061    -201.475

 3  4  5  6  7  8  9  10  11  12  13  21  23  27  28  29  30  32 0
 6-311+G(2d,p)
 ****
 34  35 0
 6-311+G(2d,p)
 ****
 1  2  14  15  16  17  18  19  20  22  24  25  26 0
 3-21G
 ****
 31  33  36  37  38  39  40  41  42  43  44  45  46 0
 3-21G
 ****


