%nproc=1
%NoSave
%Mem=1900MB
#P OB98/GEN NMR

erre ene a

0 1
  C      -25.612     133.522     118.530
  O      -25.608     134.779     117.876
  P      -26.030     136.100     118.676
  C      -27.917     136.881     117.061
  O      -27.569     136.384     118.335
  C      -29.121     137.828     117.143
  O      -29.602     138.053     115.796
  C      -30.312     137.281     117.925
  O      -31.163     138.373     118.278
  C      -30.996     136.420     116.885
  O      -32.359     136.160     117.212
  C      -30.769     137.224     115.580
  N      -30.555     136.331     114.425
  C      -30.992     136.795     113.187
  O      -31.465     137.917     113.017
  N      -30.946     135.888     112.161
  C      -30.560     134.585     112.275
  O      -30.812     133.721     111.444
  C      -29.891     134.233     113.538
  C      -29.940     135.100     114.551
  O      -25.246     137.254     117.890
  O      -25.694     136.090     120.128
  H      -32.864     136.978     116.991
  H      -24.408     137.464     118.345
  H      -31.397     136.176     111.299
  H      -29.435     133.254     113.616
  H      -29.502     134.844     115.513
  H      -31.624     137.872     115.354
  H      -30.481     135.453     116.826
  H      -30.040     136.707     118.816
  H      -28.799     138.790     117.553
  H      -28.129     136.041     116.391
  H      -27.069     137.421     116.620
  P      -31.422     138.649     119.838
  C      -33.780     137.661     119.603
  O      -32.550     137.605     120.298
  O      -31.665     140.071     120.220
  O      -30.099     138.064     120.531
  H      -30.007     138.435     121.428
  H      -34.232     136.665     119.609
  H      -33.642     137.981     118.566
  H      -34.450     138.360     120.111
  H      -25.304     132.762     117.843
  H      -26.599     133.306     118.882
  H      -24.936     133.549     119.359

 3  4  5  6  7  8  9  10  11  12  13  23  28  29  30  31  32 0
 6-311+G(2d,p)
 ****
 33  34 0
 6-311+G(2d,p)
 ****
 1  2  14  15  16  17  18  19  20  21  22  24  25  26  27 0
 3-21G
 ****
 35  36  37  38  39  40  41  42  43  44  45 0
 3-21G
 ****


