%nproc=1
%NoSave
%Mem=1900MB
#P OB98/GEN NMR

erre ene a

0 1
  C     -398.400     616.935    -200.415
  O     -399.781     617.163    -200.315
  H     -397.897     617.866    -200.705
  H     -398.200     616.181    -201.186
  H     -397.984     616.589    -199.456
  P     -400.658     616.068    -199.537
  C     -401.254     617.815    -197.706
  O     -400.712     616.527    -198.000
  C     -401.064     618.156    -196.228
  O     -399.671     617.865    -195.871
  C     -401.348     619.630    -195.867
  O     -401.936     619.679    -194.575
  C     -399.941     620.212    -195.773
  O     -399.925     621.396    -194.959
  C     -399.178     619.031    -195.189
  N     -395.087     621.048    -193.050
  C     -396.366     620.859    -192.549
  N     -396.624     621.349    -191.320
  N     -397.314     620.267    -193.220
  C     -396.927     619.829    -194.439
  C     -395.712     619.946    -195.051
  C     -394.652     620.619    -194.312
  O     -393.521     620.837    -194.701
  N     -395.728     619.406    -196.308
  C     -396.969     618.978    -196.475
  N     -397.748     619.204    -195.358
  O     -399.687     614.789    -199.519
  O     -401.980     615.740    -200.154
  H     -399.071     621.420    -194.479
  H     -399.896     614.198    -200.270
  H     -394.392     621.538    -192.507
  H     -397.378     618.519    -197.371
  H     -399.353     618.913    -194.113
  H     -399.578     620.473    -196.774
  H     -395.922     621.791    -190.733
  H     -401.989     620.134    -196.602
  H     -397.539     621.181    -190.920
  H     -401.683     617.483    -195.630
  H     -402.330     617.806    -197.934
  H     -400.770     618.565    -198.340
  P     -403.554     619.552    -194.477
  C     -403.383     617.157    -193.429
  O     -403.925     617.978    -194.457
  O     -404.041     620.036    -195.919
  O     -404.166     620.365    -193.389
  H     -404.890     620.482    -195.852
  H     -403.723     616.151    -193.559
  H     -403.703     617.521    -192.475
  H     -402.314     617.181    -193.479

 6  7  8  9  10  11  12  13  14  15  26  29  33  34 0
 6-311+G(2d,p)
 ****
 36  38  39  40  41 0
 6-311+G(2d,p)
 ****
 1  2  3  4  5  16  17  18  19  20  21  22  23  24  25 0
 3-21G
 ****
 27  28  30  31  32  35  37  42  43  44  45  46  47 0
 3-21G
 ****
 48  49 0
 3-21G
 ****


