%nproc=1
%NoSave
%Mem=1900MB
#P OB98/GEN NMR

erre ene a

0 1
  C     -282.106     102.924      58.022
  O     -282.243     101.531      58.257
  P     -281.193     100.836      59.254
  C     -278.706     100.102      59.123
  O     -279.795     100.740      58.474
  C     -277.369     100.635      58.599
  O     -277.326     102.075      58.803
  C     -276.129     100.036      59.283
  O     -275.106      99.943      58.282
  C     -275.796     101.100      60.318
  O     -274.481     101.000      60.841
  C     -276.102     102.362      59.521
  N     -273.738     106.441      61.500
  C     -273.319     105.490      60.635
  N     -274.008     104.437      60.148
  C     -275.262     104.424      60.631
  C     -275.825     105.314      61.533
  C     -275.006     106.365      61.974
  N     -275.434     107.329      62.866
  N     -277.129     104.964      61.821
  C     -277.353     103.880      61.107
  N     -276.261     103.528      60.356
  O     -281.694      99.318      59.305
  O     -281.118     101.450      60.620
  H     -274.305     101.752      61.445
  H     -281.607      98.946      60.204
  H     -272.296     105.585      60.289
  H     -278.271     103.308      61.108
  H     -275.321     102.580      58.782
  H     -276.486     100.998      61.165
  H     -276.304      99.039      59.708
  H     -277.327     100.454      57.516
  H     -278.744      99.025      58.929
  H     -274.715     107.915      63.269
  H     -276.295     107.148      63.364
  H     -278.789     100.253      60.205
  P     -273.816      99.034      58.572
  C     -272.130      99.004      60.511
  O     -273.103      99.763      59.814
  O     -272.867      99.464      57.356
  O     -274.065      97.569      58.683
  H     -272.788     100.433      57.292
  H     -271.661      99.648      61.261
  H     -271.363      98.647      59.818
  H     -272.606      98.164      61.020
  H     -282.867     103.248      57.343
  H     -281.143     103.121      57.599
  H     -282.204     103.453      58.947

 3  4  5  6  7  8  9  10  11  12  22  25  29  30  31  32 0
 6-311+G(2d,p)
 ****
 33  36  37 0
 6-311+G(2d,p)
 ****
 1  2  13  14  15  16  17  18  19  20  21  23  24  26 0
 3-21G
 ****
 27  28  34  35  38  39  40  41  42  43  44  45  46  47  48 0
 3-21G
 ****


