%nproc=1
%NoSave
%Mem=1900MB
#P OB98/GEN NMR

erre ene a

0 1
  C       26.773      21.423    -134.969
  O       28.038      21.006    -134.499
  H       26.527      22.410    -134.570
  H       26.805      21.484    -136.060
  H       26.004      20.701    -134.679
  P       28.203      20.843    -132.911
  C       29.853      22.832    -133.189
  O       28.843      22.222    -132.396
  C       30.154      24.226    -132.651
  O       29.068      25.126    -132.964
  C       30.320      24.292    -131.137
  O       31.615      23.893    -130.722
  C       30.098      25.775    -130.897
  O       31.280      26.509    -131.265
  C       28.955      26.082    -131.875
  N       24.768      28.653    -130.449
  C       25.932      29.059    -130.998
  N       27.000      28.312    -131.345
  C       26.783      27.017    -131.069
  C       25.652      26.456    -130.501
  C       24.602      27.337    -130.190
  N       23.419      26.928    -129.615
  N       25.811      25.093    -130.338
  C       27.006      24.836    -130.831
  N       27.637      25.967    -131.275
  O       29.413      19.804    -132.763
  O       26.982      20.407    -132.174
  H       31.038      27.455    -131.249
  H       29.390      19.388    -131.882
  H       26.017      30.127    -131.184
  H       27.455      23.853    -130.888
  H       29.030      27.086    -132.307
  H       29.884      26.013    -129.854
  H       29.538      23.723    -130.620
  H       31.053      24.599    -133.159
  H       29.500      22.910    -134.221
  H       22.814      27.655    -129.264
  H       23.349      25.977    -129.284
  H       30.753      22.211    -133.164
  P       31.785      23.414    -129.200
  C       33.065      25.641    -128.793
  O       32.050      24.745    -128.349
  O       33.207      22.684    -129.206
  O       30.693      22.528    -128.698
  H       33.256      22.012    -128.499
  H       33.121      26.475    -128.126
  H       32.829      25.987    -129.778
  H       34.007      25.133    -128.809

 6  7  8  9  10  11  12  13  14  15  25  28  32  33  34  35 0
 6-311+G(2d,p)
 ****
 36  39  40 0
 6-311+G(2d,p)
 ****
 1  2  3  4  5  16  17  18  19  20  21  22  23  24 0
 3-21G
 ****
 26  27  29  30  31  37  38  41  42  43  44  45  46  47 0
 3-21G
 ****
 48 0
 3-21G
 ****


