%nproc=1
%NoSave
%Mem=1900MB
#P OB98/GEN NMR

erre ene a

0 1
  C      165.346     617.248     396.804
  O      166.137     618.345     397.215
  H      164.303     617.462     397.044
  H      165.657     616.348     397.336
  H      165.438     617.097     395.726
  P      167.687     618.321     396.785
  C      169.931     618.204     398.150
  O      168.508     618.206     398.162
  C      170.467     618.559     399.536
  O      170.242     619.966     399.786
  C      169.818     617.772     400.683
  O      170.812     617.486     401.666
  C      168.791     618.748     401.246
  O      168.463     618.452     402.601
  C      169.501     620.088     401.016
  N      168.558     621.212     400.952
  C      168.651     622.168     401.972
  O      169.480     622.038     402.878
  N      167.780     623.227     401.966
  C      166.848     623.296     401.059
  N      166.002     624.355     401.127
  C      166.682     622.280     400.005
  C      167.568     621.287     400.001
  O      167.917     619.840     396.328
  O      168.020     617.302     395.752
  H      169.192     618.770     403.170
  H      167.491     620.492     396.913
  H      165.870     622.367     399.288
  H      167.518     620.499     399.250
  H      170.222     620.294     401.821
  H      167.867     618.699     400.659
  H      169.343     616.849     400.348
  H      171.562     618.415     399.535
  H      166.131     625.014     401.880
  H      170.306     618.924     397.417
  H      165.213     624.476     400.508
  H      170.264     617.207     397.851
  P      171.536     616.059     401.639
  C      170.891     613.603     402.099
  O      170.573     614.975     402.327
  O      172.961     616.036     402.124
  O      171.470     615.639     400.090
  H      172.318     615.197     399.858
  H      170.181     612.983     402.606
  H      171.873     613.398     402.471
  H      170.857     613.399     401.049

 6  7  8  9  10  11  12  13  14  15  16  26  30  31  32  33  35 0
 6-311+G(2d,p)
 ****
 37  38 0
 6-311+G(2d,p)
 ****
 1  2  3  4  5  17  18  19  20  21  22  23  24  25 0
 3-21G
 ****
 27  28  29  34  36  39  40  41  42  43  44  45  46 0
 3-21G
 ****


