%nproc=1
%NoSave
%Mem=1900MB
#P OB98/GEN NMR

erre ene a

0 1
  C      119.672     199.479     -69.572
  O      118.269     199.654     -69.715
  P      117.427     200.027     -68.402
  C      116.354     198.628     -66.511
  O      117.368     198.698     -67.503
  C      116.316     197.244     -65.870
  O      117.581     197.003     -65.198
  C      115.198     197.060     -64.826
  O      114.582     195.778     -65.014
  C      115.949     197.021     -63.505
  O      115.234     196.306     -62.504
  C      117.257     196.363     -63.948
  N      119.587     194.152     -60.046
  C      118.666     193.630     -60.936
  N      118.271     192.356     -60.715
  N      118.173     194.297     -61.947
  C      118.684     195.548     -62.063
  C      119.605     196.173     -61.254
  C      120.094     195.444     -60.101
  O      120.843     195.880     -59.228
  N      119.886     197.439     -61.701
  C      119.135     197.583     -62.778
  N      118.351     196.479     -63.012
  O      115.936     200.171     -68.970
  O      117.859     201.267     -67.699
  H      115.130     195.390     -62.826
  H      115.581     201.054     -68.745
  H      119.920     193.600     -59.275
  H      119.103     198.471     -63.398
  H      117.097     195.290     -64.142
  H      116.113     198.048     -63.154
  H      118.639     191.774     -59.979
  H      114.433     197.842     -64.847
  H      117.615     191.949     -61.369
  H      116.228     196.492     -66.666
  H      115.383     198.833     -66.974
  H      116.551     199.389     -65.750
  P      113.224     195.524     -64.199
  C      112.732     195.539     -61.637
  O      113.665     195.300     -62.674
  O      112.768     194.065     -64.681
  O      112.173     196.559     -64.434
  H      111.806     193.955     -64.572
  H      111.719     195.703     -62.025
  H      113.043     196.420     -61.075
  H      112.716     194.673     -60.969
  H      120.100     199.235     -70.522
  H      119.864     198.685     -68.880
  H      120.109     200.385     -69.206

 3  4  5  6  7  8  9  10  11  12  23  26  30  31  33  0
 6-311+G(2d,p)
 ****
 35  36  37  38 0
 6-311+G(2d,p)
 ****
 1  2  13  14  15  16  17  18  19  20  21  22  24  25  27  28  29 0
 3-21G
 ****
 32  34  39  40  41  42  43  44  45  46  47  48  49 0
 3-21G
 ****


