%nproc=1
%NoSave
%Mem=1900MB
#P OB98/GEN NMR

erre ene a

0 1
  C     -227.797       7.678     140.422
  O     -228.866       7.140     141.182
  P     -230.070       8.114     141.591
  C     -228.970       8.894     143.809
  O     -229.474       9.268     142.536
  C     -229.879       9.409     144.927
  O     -229.658       8.628     146.132
  C     -229.636      10.878     145.288
  O     -230.880      11.482     145.677
  C     -228.766      10.799     146.524
  O     -228.863      11.986     147.310
  C     -229.331       9.546     147.194
  N     -228.252       8.844     152.079
  C     -229.427       9.271     151.493
  N     -230.417       9.643     152.333
  N     -229.615       9.324     150.203
  C     -228.535       8.927     149.487
  C     -227.323       8.469     149.954
  C     -227.124       8.430     151.386
  O     -226.098       8.089     151.966
  N     -226.486       8.129     148.924
  C     -227.169       8.417     147.833
  N     -228.404       8.940     148.123
  O     -230.931       7.213     142.597
  O     -230.904       8.587     140.449
  H     -228.732      12.740     146.703
  H     -231.743       6.905     142.152
  H     -228.151       8.834     153.082
  H     -226.811       8.293     146.820
  H     -230.258       9.765     147.737
  H     -227.718      10.665     146.238
  H     -230.312       9.690     153.336
  H     -229.179      11.472     144.489
  H     -231.273      10.002     151.930
  H     -230.923       9.250     144.630
  H     -227.973       9.321     143.937
  H     -228.886       7.805     143.865
  P     -231.257      12.856     144.933
  C     -230.876      14.149     147.158
  O     -230.564      14.018     145.786
  O     -232.816      13.028     145.248
  O     -230.968      12.858     143.469
  H     -233.243      13.568     144.557
  H     -229.968      13.977     147.744
  H     -231.646      13.444     147.480
  H     -231.231      15.166     147.345
  H     -227.076       6.912     140.229
  H     -227.335       8.473     140.969
  H     -228.174       8.056     139.494

 3  4  5  6  7  8  9  10  11  12  23  26  30  31 0
 6-311+G(2d,p)
 ****
 33  35  36  37  38 0
 6-311+G(2d,p)
 ****
 1  2  13  14  15  16  17  18  19  20  21  22  24  25 0
 3-21G
 ****
 27  28  29  32  34  39  40  41  42  43  44  45  46  47  48  49 0
 3-21G
 ****


