%nproc=1
%NoSave
%Mem=1900MB
#P OB98/GEN NMR

erre ene a

0 1
  C      -83.205      12.136      94.063
  O      -82.799      12.074      95.420
  P      -81.634      11.050      95.822
  C      -83.271       9.035      95.968
  O      -82.101       9.581      95.377
  C      -83.604       7.681      95.337
  O      -83.821       7.857      93.904
  C      -82.502       6.623      95.506
  O      -83.144       5.346      95.629
  C      -81.769       6.699      94.179
  O      -80.998       5.542      93.900
  C      -82.953       6.923      93.230
  N      -82.543       7.418      91.917
  C      -83.122       6.823      90.800
  O      -83.950       5.913      90.856
  N      -82.671       7.268      89.587
  C      -81.658       8.160      89.382
  O      -81.222       8.428      88.269
  C      -81.084       8.756      90.598
  C      -81.544       8.365      91.790
  O      -81.718      11.009      97.419
  O      -80.274      11.434      95.344
  H      -80.533       5.294      94.721
  H      -81.028      11.576      97.812
  H      -83.088       6.856      88.766
  H      -80.291       9.483      90.473
  H      -81.124       8.772      92.704
  H      -83.519       5.990      93.107
  H      -81.093       7.562      94.185
  H      -81.847       6.806      96.363
  H      -84.548       7.319      95.766
  H      -84.106       9.720      95.809
  H      -83.123       8.931      97.049
  P      -82.615       4.346      96.771
  C      -80.992       3.411      94.946
  O      -81.185       3.810      96.285
  O      -83.591       3.094      96.548
  O      -82.680       4.918      98.149
  H      -83.716       2.880      95.609
  H      -81.586       4.017      94.256
  H      -81.271       2.361      94.836
  H      -79.935       3.522      94.691
  H      -83.985      12.861      93.957
  H      -83.565      11.177      93.754
  H      -82.371      12.417      93.454

 3  4  5  6  7  8  9  10  11  12  13  23  28  29  30  31  32 0
 6-311+G(2d,p)
 ****
 33  34 0
 6-311+G(2d,p)
 ****
 1  2  14  15  16  17  18  19  20  21  22  24  25  26 0
 3-21G
 ****
 27  35  36  37  38  39  40  41  42  43  44  45 0
 3-21G
 ****


