%nproc=1
%NoSave
%Mem=1900MB
#P OB98/GEN NMR

erre ene a

0 1
  C      330.978      68.205     377.944
  O      330.604      69.400     378.602
  H      330.077      67.617     377.751
  H      331.656      67.621     378.573
  H      331.460      68.438     376.991
  P      331.796      70.397     379.008
  C      330.784      72.610     378.160
  O      331.060      71.798     379.294
  C      330.004      73.860     378.575
  O      328.674      73.459     378.984
  C      330.644      74.614     379.743
  O      330.493      76.019     379.535
  C      329.815      74.186     380.940
  O      329.838      75.150     381.992
  C      328.441      73.973     380.308
  N      326.227      73.200     384.839
  C      326.847      74.275     384.307
  N      327.399      74.400     383.080
  C      327.214      73.280     382.361
  C      326.606      72.105     382.766
  C      326.100      72.086     384.078
  N      325.490      70.986     384.635
  N      326.652      71.162     381.758
  C      327.269      71.763     380.755
  N      327.640      73.037     381.079
  O      332.941      70.458     378.057
  O      332.152      69.888     380.484
  H      329.272      74.819     382.719
  H      331.349      69.717     381.007
  H      326.918      75.146     384.955
  H      327.477      71.316     379.789
  H      327.867      74.906     380.225
  H      330.205      73.240     381.343
  H      331.699      74.373     379.872
  H      329.887      74.508     377.698
  H      330.201      72.044     377.424
  H      325.141      71.062     385.579
  H      325.369      70.152     384.080
  H      331.738      72.891     377.704
  P      331.804      76.939     379.564
  C      331.840      77.518     377.046
  O      331.699      78.015     378.375
  O      333.106      76.221     379.664
  O      331.555      77.853     380.862
  H      332.408      77.993     381.316
  H      331.751      78.327     376.351
  H      331.075      76.796     376.852
  H      332.800      77.058     376.937

 6  7  8  9  10  11  12  13  14  15  25  28  32  33  34  35 0
 6-311+G(2d,p)
 ****
 36  39  40 0
 6-311+G(2d,p)
 ****
 1  2  3  4  5  16  17  18  19  20  21  22  23  24 0
 3-21G
 ****
 26  27  29  30  31  37  38  41  42  43  44  45  46  47 0
 3-21G
 ****
 48 0
 3-21G
 ****


