%nproc=1
%NoSave
%Mem=1900MB
#P OB98/GEN NMR

erre ene a

0 1
  C      -16.899    -132.802      82.224
  O      -17.062    -131.675      83.082
  P      -17.024    -130.151      82.614
  C      -14.414    -129.970      82.339
  O      -15.703    -129.917      81.744
  C      -13.406    -129.115      81.553
  O      -13.244    -129.692      80.222
  C      -13.883    -127.670      81.363
  O      -12.853    -126.702      81.543
  C      -14.565    -127.711      80.005
  O      -14.704    -126.435      79.401
  C      -13.705    -128.725      79.250
  N      -15.742    -128.298      74.587
  C      -15.237    -127.316      75.413
  N      -15.287    -126.048      74.950
  N      -14.735    -127.550      76.596
  C      -14.814    -128.847      76.971
  C      -15.310    -129.910      76.247
  C      -15.815    -129.648      74.918
  O      -16.258    -130.484      74.136
  N      -15.215    -131.082      76.956
  C      -14.683    -130.729      78.108
  N      -14.415    -129.378      78.163
  O      -17.322    -129.137      83.668
  O      -18.200    -130.061      81.511
  H      -13.831    -126.176      79.050
  H      -18.563    -129.156      81.570
  H      -16.094    -128.065      73.672
  H      -14.458    -131.403      78.926
  H      -12.826    -128.262      78.795
  H      -15.579    -128.107      80.156
  H      -15.767    -125.782      74.105
  H      -14.621    -127.400      82.127
  H      -15.121    -125.314      75.642
  H      -12.436    -129.158      82.060
  H      -14.111    -131.021      82.312
  H      -14.458    -129.664      83.386
  P      -12.751    -125.542      82.635
  C      -12.839    -123.256      81.477
  O      -13.584    -124.277      82.115
  O      -11.236    -125.029      82.559
  O      -13.082    -125.968      84.031
  H      -10.796    -125.181      83.420
  H      -13.458    -122.357      81.414
  H      -12.576    -123.575      80.463
  H      -11.933    -123.025      82.041
  H      -16.969    -133.701      82.799
  H      -15.940    -132.755      81.751
  H      -17.665    -132.796      81.477

 3  4  5  6  7  8  9  10  11  12  23  26  30  31 0
 6-311+G(2d,p)
 ****
 33  35  36  37  38 0
 6-311+G(2d,p)
 ****
 1  2  13  14  15  16  17  18  19  20  21  22  24  25 0
 3-21G
 ****
 27  28  29  32  34  39  40  41  42  43  44  45  46  47  48  49 0
 3-21G
 ****


