%nproc=1
%NoSave
%Mem=1900MB
#P OB98/GEN NMR

erre ene a

0 1
  C     -155.536    -156.419     189.056
  O     -154.158    -156.190     189.280
  H     -155.905    -155.670     188.351
  H     -156.097    -156.325     189.990
  H     -155.694    -157.412     188.627
  P     -153.383    -157.161     190.289
  C     -151.337    -156.168     189.068
  O     -151.858    -156.665     190.293
  C     -149.919    -155.646     189.277
  O     -149.095    -156.660     189.884
  C     -149.216    -155.230     187.986
  O     -149.628    -153.931     187.595
  C     -147.765    -155.289     188.433
  O     -147.454    -154.130     189.230
  C     -147.763    -156.554     189.310
  N     -144.137    -159.342     187.127
  C     -144.066    -158.090     187.707
  N     -142.863    -157.479     187.658
  N     -145.083    -157.487     188.263
  C     -146.235    -158.191     188.173
  C     -146.434    -159.430     187.610
  C     -145.289    -160.113     187.047
  O     -145.306    -161.229     186.539
  N     -147.756    -159.794     187.650
  C     -148.348    -158.792     188.271
  N     -147.470    -157.786     188.597
  O     -153.538    -158.633     190.045
  O     -153.917    -156.731     191.732
  H     -147.823    -153.361     188.756
  H     -154.681    -157.271     192.001
  H     -143.321    -159.746     186.698
  H     -149.403    -158.746     188.510
  H     -147.051    -156.484     190.139
  H     -147.061    -155.312     187.602
  H     -142.143    -157.765     187.006
  H     -149.364    -155.964     187.189
  H     -142.801    -156.541     188.032
  H     -149.970    -154.808     189.983
  H     -151.996    -155.361     188.732
  H     -151.330    -156.957     188.310
  P     -149.886    -153.574     186.050
  C     -151.644    -151.760     186.589
  O     -150.360    -152.043     186.052
  O     -150.801    -154.509     185.336
  O     -148.427    -153.484     185.410
  H     -148.088    -154.351     185.075
  H     -151.832    -150.708     186.529
  H     -151.679    -152.070     187.612
  H     -152.388    -152.288     186.031

 6  7  8  9  10  11  12  13  14  15  26  29  33  34 0
 6-311+G(2d,p)
 ****
 36  38  39  40  41 0
 6-311+G(2d,p)
 ****
 1  2  3  4  5  16  17  18  19  20  21  22  23  24  25 0
 3-21G
 ****
 27  28  30  31  32  35  37  42  43  44  45  46  47 0
 3-21G
 ****
 48  49 0
 3-21G
 ****


