%nproc=1
%NoSave
%Mem=1900MB
#P OB98/GEN NMR

erre ene a

0 1
  C      267.759    -436.001    -350.380
  O      267.059    -434.941    -349.730
  P      267.253    -433.443    -350.257
  C      264.925    -433.157    -351.311
  O      266.328    -433.236    -351.550
  C      264.469    -431.694    -351.238
  O      264.532    -431.056    -352.536
  C      263.031    -431.532    -350.779
  O      262.931    -431.768    -349.386
  C      262.731    -430.119    -351.234
  O      263.218    -429.155    -350.291
  C      263.523    -430.018    -352.558
  N      262.684    -430.111    -353.747
  C      261.785    -429.052    -353.944
  O      261.717    -428.133    -353.128
  N      260.991    -429.072    -355.060
  C      261.074    -430.054    -355.899
  N      260.258    -430.023    -356.985
  C      261.993    -431.190    -355.711
  C      262.758    -431.163    -354.620
  O      268.670    -432.992    -350.406
  O      266.499    -432.571    -349.141
  H      264.195    -429.258    -350.266
  H      266.929    -431.694    -349.076
  H      262.017    -431.992    -356.441
  H      263.457    -431.957    -354.417
  H      264.067    -429.070    -352.610
  H      261.651    -429.936    -351.336
  H      262.382    -432.241    -351.320
  H      265.143    -431.155    -350.557
  H      259.629    -429.227    -357.074
  H      264.686    -433.663    -350.372
  H      260.280    -430.721    -357.724
  H      264.396    -433.699    -352.108
  P      261.588    -432.453    -348.835
  C      262.234    -434.968    -348.943
  O      261.485    -433.912    -349.508
  O      260.429    -431.629    -349.581
  O      261.397    -432.424    -347.351
  H      259.647    -431.558    -348.999
  H      261.815    -435.920    -349.286
  H      262.174    -434.945    -347.846
  H      263.273    -434.901    -349.247
  H      267.519    -436.930    -349.907
  H      268.813    -435.828    -350.311
  H      267.471    -436.040    -351.410

 3  4  5  6  7  8  9  10  11  12  13  23  27  28  29  30  32 0
 6-311+G(2d,p)
 ****
 34  35 0
 6-311+G(2d,p)
 ****
 1  2  14  15  16  17  18  19  20  21  22  24  25  26 0
 3-21G
 ****
 31  33  36  37  38  39  40  41  42  43  44  45  46 0
 3-21G
 ****


