%nproc=1
%NoSave
%Mem=1900MB
#P OB98/GEN NMR

erre ene a

0 1
  C     -231.867    -542.867      80.015
  O     -232.472    -541.848      80.820
  P     -232.739    -540.368      80.262
  C     -235.279    -540.655      79.922
  O     -234.250    -539.948      80.613
  C     -236.624    -539.933      80.020
  O     -237.524    -540.380      78.986
  C     -237.363    -540.144      81.340
  O     -236.812    -539.326      82.354
  C     -238.794    -539.799      80.941
  O     -238.988    -538.376      80.933
  C     -238.865    -540.355      79.509
  N     -243.264    -542.967      79.589
  C     -242.996    -541.642      79.640
  N     -241.798    -541.024      79.619
  C     -240.805    -541.918      79.506
  C     -240.923    -543.304      79.451
  C     -242.224    -543.828      79.496
  N     -242.490    -545.178      79.459
  N     -239.680    -543.897      79.365
  C     -238.828    -542.888      79.356
  N     -239.458    -541.677      79.437
  O     -232.368    -540.175      78.824
  O     -231.862    -539.410      81.201
  H     -239.919    -538.211      80.681
  H     -231.607    -538.609      80.710
  H     -243.866    -540.991      79.708
  H     -237.751    -542.985      79.286
  H     -239.449    -539.700      78.848
  H     -239.538    -540.226      81.618
  H     -237.311    -541.197      81.631
  H     -236.442    -538.862      79.851
  H     -235.368    -541.657      80.364
  H     -243.447    -545.479      79.535
  H     -241.717    -545.833      79.438
  H     -234.985    -540.760      78.872
  P     -236.754    -539.849      83.865
  C     -234.757    -541.456      83.961
  O     -235.213    -540.139      84.205
  O     -237.697    -540.951      84.204
  O     -237.058    -538.534      84.737
  H     -237.500    -538.797      85.567
  H     -235.055    -542.107      84.780
  H     -233.668    -541.437      83.899
  H     -235.154    -541.839      83.016
  H     -231.785    -543.769      80.584
  H     -230.892    -542.548      79.710
  H     -232.472    -543.044      79.150

 3  4  5  6  7  8  9  10  11  12  22  25  29  30  31  32 0
 6-311+G(2d,p)
 ****
 33  36  37 0
 6-311+G(2d,p)
 ****
 1  2  13  14  15  16  17  18  19  20  21  23  24  26 0
 3-21G
 ****
 27  28  34  35  38  39  40  41  42  43  44  45  46  47  48 0
 3-21G
 ****


