%nproc=1
%NoSave
%Mem=1900MB
#P OB98/GEN NMR

erre ene a

0 1
  C     -528.707     154.322     340.884
  O     -530.072     154.204     341.238
  H     -528.137     154.629     341.767
  H     -528.583     155.078     340.107
  H     -528.317     153.361     340.532
  P     -531.056     153.581     340.126
  C     -532.782     152.580     341.835
  O     -532.498     153.526     340.812
  C     -534.102     152.911     342.530
  O     -533.883     154.016     343.440
  C     -535.226     153.315     341.565
  O     -536.458     152.787     342.064
  C     -535.232     154.828     341.638
  O     -536.500     155.372     341.264
  C     -534.814     155.072     343.096
  N     -534.221     156.393     343.299
  C     -534.942     157.487     342.802
  O     -536.016     157.309     342.219
  N     -534.418     158.749     342.948
  C     -533.238     158.894     343.477
  N     -532.766     160.168     343.574
  C     -532.418     157.763     343.959
  C     -532.977     156.562     343.855
  O     -530.581     152.046     340.100
  O     -530.998     154.266     338.803
  H     -536.412     156.353     341.207
  H     -530.404     151.681     340.982
  H     -531.437     157.944     344.381
  H     -532.446     155.681     344.196
  H     -535.685     154.968     343.768
  H     -534.472     155.238     340.958
  H     -535.061     152.961     340.542
  H     -534.399     152.053     343.145
  H     -533.344     160.911     343.215
  H     -531.969     152.573     342.570
  H     -531.845     160.402     343.919
  H     -532.828     151.586     341.372
  P     -537.358     151.869     341.111
  C     -537.563     150.065     342.950
  O     -538.259     150.890     342.015
  O     -536.638     151.195     339.985
  O     -538.455     152.900     340.535
  H     -538.619     152.674     339.600
  H     -538.266     149.464     343.487
  H     -537.023     150.682     343.637
  H     -536.879     149.431     342.426

 6  7  8  9  10  11  12  13  14  15  16  26  30  31  32  33  35 0
 6-311+G(2d,p)
 ****
 37  38 0
 6-311+G(2d,p)
 ****
 1  2  3  4  5  17  18  19  20  21  22  23  24  25 0
 3-21G
 ****
 27  28  29  34  36  39  40  41  42  43  44  45  46 0
 3-21G
 ****


