%nproc=1
%NoSave
%Mem=1900MB
#P OB98/GEN NMR

erre ene a

0 1
  C      436.622    1381.451     763.779
  O      437.899    1381.612     764.342
  P      438.068    1381.209     765.921
  C      438.479    1378.632     766.013
  O      439.069    1379.946     765.924
  C      439.375    1377.595     765.354
  O      439.632    1378.001     763.968
  C      440.748    1377.401     765.977
  O      440.690    1376.545     767.104
  C      441.504    1376.754     764.826
  O      441.159    1375.359     764.732
  C      440.949    1377.520     763.599
  N      445.469    1378.781     761.551
  C      444.950    1377.614     761.935
  N      443.738    1377.328     762.481
  C      443.048    1378.475     762.698
  C      443.472    1379.784     762.380
  C      444.727    1379.899     761.807
  N      445.265    1381.139     761.389
  N      442.508    1380.691     762.757
  C      441.531    1379.970     763.218
  N      441.791    1378.629     763.199
  O      436.644    1380.587     766.280
  O      438.445    1382.335     766.805
  H      441.610    1375.017     763.934
  H      436.494    1380.656     767.247
  H      445.566    1376.736     761.769
  H      440.595    1380.359     763.573
  H      440.813    1376.861     762.743
  H      442.585    1376.831     764.952
  H      441.201    1378.366     766.230
  H      438.800    1376.654     765.304
  H      437.490    1378.639     765.558
  H      446.074    1381.089     760.830
  H      444.639    1381.941     761.385
  H      438.362    1378.394     767.103
  P      441.918    1376.616     768.137
  C      440.916    1378.494     769.652
  O      441.255    1377.104     769.520
  O      442.758    1377.898     767.611
  O      442.743    1375.380     768.178
  H      443.676    1377.814     767.867
  H      440.203    1378.589     770.500
  H      440.387    1378.842     768.740
  H      441.799    1379.087     769.820
  H      436.646    1381.747     762.751
  H      435.919    1382.059     764.309
  H      436.329    1380.424     763.848

 3  4  5  6  7  8  9  10  11  12  22  25  29  30  31  32 0
 6-311+G(2d,p)
 ****
 33  36  37 0
 6-311+G(2d,p)
 ****
 1  2  13  14  15  16  17  18  19  20  21  23  24  26 0
 3-21G
 ****
 27  28  34  35  38  39  40  41  42  43  44  45  46  47  48 0
 3-21G
 ****


