%nproc=1
%NoSave
%Mem=1900MB
#P OB98/GEN NMR

erre ene a

0 1
  C      -59.750    -115.517    -100.638
  O      -58.816    -115.888    -101.632
  H      -60.727    -115.378    -101.108
  H      -59.445    -114.573    -100.177
  H      -59.833    -116.295     -99.875
  P      -57.363    -116.340    -101.122
  C      -56.126    -114.059    -101.126
  O      -56.314    -115.311    -101.768
  C      -55.342    -113.114    -102.033
  O      -53.996    -113.606    -102.227
  C      -55.938    -112.944    -103.427
  O      -56.988    -111.987    -103.438
  C      -54.725    -112.436    -104.190
  O      -54.507    -111.043    -103.888
  C      -53.599    -113.290    -103.592
  N      -51.134    -115.406    -107.485
  C      -51.161    -114.092    -107.060
  N      -50.434    -113.212    -107.782
  N      -51.842    -113.673    -106.024
  C      -52.531    -114.661    -105.405
  C      -52.583    -115.999    -105.729
  C      -51.819    -116.449    -106.870
  O      -51.741    -117.605    -107.276
  N      -53.381    -116.695    -104.859
  C      -53.828    -115.779    -104.024
  N      -53.347    -114.525    -104.316
  O      -57.092    -117.697    -101.931
  O      -57.237    -116.551     -99.651
  H      -55.222    -110.546    -104.325
  H      -56.594    -118.311    -101.357
  H      -50.603    -115.673    -108.294
  H      -54.496    -115.970    -103.194
  H      -52.647    -112.749    -103.541
  H      -54.845    -112.515    -105.270
  H      -49.927    -113.458    -108.617
  H      -56.259    -113.905    -103.847
  H      -50.411    -112.249    -107.471
  H      -55.266    -112.144    -101.525
  H      -55.570    -114.210    -100.195
  H      -57.104    -113.628    -100.891
  P      -58.351    -112.386    -104.193
  C      -57.020    -113.111    -106.303
  O      -58.024    -112.263    -105.761
  O      -59.299    -111.128    -103.913
  O      -58.965    -113.667    -103.748
  H      -60.236    -111.393    -103.995
  H      -56.915    -112.916    -107.350
  H      -57.300    -114.133    -106.157
  H      -56.089    -112.922    -105.810

 6  7  8  9  10  11  12  13  14  15  26  29  33  34 0
 6-311+G(2d,p)
 ****
 36  38  39  40  41 0
 6-311+G(2d,p)
 ****
 1  2  3  4  5  16  17  18  19  20  21  22  23  24  25 0
 3-21G
 ****
 27  28  30  31  32  35  37  42  43  44  45  46  47 0
 3-21G
 ****
 48  49 0
 3-21G
 ****


