%nproc=1
%NoSave
%Mem=1900MB
#P OB98/GEN NMR

erre ene a

0 1
  C      -18.023     -49.863     -22.777
  O      -17.198     -50.551     -23.715
  P      -17.678     -51.979     -24.266
  C      -17.419     -54.447     -23.572
  O      -16.927     -53.120     -23.424
  C      -16.270     -55.460     -23.545
  O      -15.565     -55.501     -24.801
  C      -15.215     -55.141     -22.499
  O      -15.679     -55.451     -21.196
  C      -14.044     -55.984     -22.990
  O      -14.175     -57.347     -22.556
  C      -14.203     -55.899     -24.525
  N      -13.246     -54.999     -25.152
  C      -11.895     -55.270     -24.902
  O      -11.575     -56.195     -24.157
  N      -10.945     -54.471     -25.491
  C      -11.313     -53.487     -26.255
  N      -10.329     -52.732     -26.814
  C      -12.725     -53.163     -26.534
  C      -13.629     -53.946     -25.950
  O      -17.636     -52.149     -25.748
  O      -19.184     -52.081     -23.716
  H      -15.102     -57.600     -22.736
  H      -19.711     -52.622     -24.337
  H      -12.980     -52.335     -27.182
  H      -14.691     -53.777     -26.099
  H      -14.074     -56.891     -24.975
  H      -13.089     -55.614     -22.607
  H      -14.951     -54.076     -22.555
  H      -16.696     -56.455     -23.353
  H       -9.367     -52.968     -26.599
  H      -17.965     -54.531     -24.517
  H      -10.511     -51.978     -27.461
  H      -18.141     -54.649     -22.772
  P      -16.486     -54.314     -20.403
  C      -15.894     -52.159     -19.090
  O      -15.425     -53.237     -19.877
  O      -16.945     -55.069     -19.064
  O      -17.664     -53.753     -21.136
  H      -17.813     -54.730     -18.778
  H      -15.041     -51.716     -18.564
  H      -16.629     -52.492     -18.352
  H      -16.340     -51.398     -19.736
  H      -17.563     -48.934     -22.512
  H      -18.144     -50.464     -21.900
  H      -18.981     -49.675     -23.215

 3  4  5  6  7  8  9  10  11  12  13  23  27  28  29  30  32 0
 6-311+G(2d,p)
 ****
 34  35 0
 6-311+G(2d,p)
 ****
 1  2  14  15  16  17  18  19  20  21  22  24  25  26 0
 3-21G
 ****
 31  33  36  37  38  39  40  41  42  43  44  45  46 0
 3-21G
 ****


