%nproc=1
%NoSave
%Mem=1900MB
#P OB98/GEN NMR

erre ene a

0 1
  C     -293.051      78.367     130.109
  O     -293.198      78.626     128.727
  H     -293.345      77.332     130.303
  H     -293.706      79.032     130.679
  H     -292.016      78.504     130.430
  P     -292.508      79.931     128.110
  C     -291.015      78.358     126.713
  O     -291.851      79.504     126.708
  C     -290.801      77.827     125.288
  O     -292.083      77.671     124.633
  C     -289.992      78.830     124.458
  O     -289.228      78.193     123.436
  C     -291.075      79.681     123.814
  O     -290.631      80.355     122.639
  C     -292.159      78.633     123.564
  N     -295.676      80.983     120.722
  C     -294.359      80.706     120.423
  N     -293.913      81.130     119.220
  N     -293.547      80.083     121.243
  C     -294.111      79.786     122.437
  C     -295.398      80.033     122.859
  C     -296.296      80.686     121.931
  O     -297.473      80.973     122.148
  N     -295.597      79.602     124.148
  C     -294.431      79.101     124.510
  N     -293.501      79.179     123.501
  O     -291.223      80.159     129.042
  O     -293.371      81.157     128.058
  H     -291.406      80.797     122.243
  H     -290.952      81.095     129.027
  H     -296.265      81.449     120.052
  H     -294.212      78.675     125.479
  H     -291.976      78.105     122.616
  H     -291.383      80.451     124.532
  H     -294.440      81.759     118.638
  H     -289.326      79.431     125.077
  H     -292.898      81.198     119.109
  H     -290.336      76.833     125.321
  H     -291.508      77.598     127.325
  H     -290.054      78.588     127.184
  P     -287.639      78.384     123.473
  C     -287.272      76.140     124.789
  O     -286.976      76.935     123.653
  O     -287.380      79.111     124.870
  O     -287.099      79.166     122.320
  H     -287.171      80.056     124.730
  H     -286.737      75.216     124.727
  H     -288.323      75.942     124.822
  H     -286.980      76.662     125.676

 6  7  8  9  10  11  12  13  14  15  26  29  33  34 0
 6-311+G(2d,p)
 ****
 36  38  39  40  41 0
 6-311+G(2d,p)
 ****
 1  2  3  4  5  16  17  18  19  20  21  22  23  24  25 0
 3-21G
 ****
 27  28  30  31  32  35  37  42  43  44  45  46  47 0
 3-21G
 ****
 48  49 0
 3-21G
 ****


