%nproc=1
%NoSave
%Mem=1900MB
#P OB98/GEN NMR

erre ene a

0 1
  C       80.596      -9.482     333.353
  O       81.910      -9.971     333.535
  H       80.217      -9.846     332.394
  H       80.595      -8.388     333.342
  H       79.947      -9.849     334.153
  P       82.675      -9.503     334.865
  C       84.130      -7.721     333.698
  O       83.049      -7.962     334.592
  C       85.287      -7.044     334.431
  O       86.429      -6.983     333.534
  C       84.973      -5.611     334.878
  O       85.615      -5.360     336.131
  C       85.630      -4.762     333.800
  O       85.922      -3.441     334.256
  C       86.854      -5.611     333.465
  N       89.489      -2.163     330.794
  C       89.273      -2.309     332.120
  N       88.573      -3.273     332.751
  C       88.121      -4.188     331.866
  C       88.258      -4.173     330.491
  C       88.978      -3.092     329.947
  N       89.174      -2.913     328.598
  N       87.615      -5.258     329.928
  C       87.101      -5.920     330.951
  N       87.364      -5.297     332.143
  O       83.814     -10.366     335.294
  O       81.471      -9.382     335.913
  H       86.445      -3.504     335.080
  H       80.708      -8.907     335.530
  H       89.711      -1.543     332.757
  H       86.522      -6.835     330.880
  H       87.682      -5.464     334.174
  H       84.964      -4.678     332.935
  H       83.905      -5.411     334.962
  H       85.585      -7.670     335.280
  H       83.798      -7.087     332.870
  H       89.701      -2.110     328.296
  H       88.806      -3.596     327.950
  H       84.449      -8.689     333.289
  P       84.712      -5.148     337.440
  C       84.465      -2.584     337.268
  O       83.800      -3.840     337.225
  O       85.435      -5.205     338.744
  O       83.638      -6.334     337.327
  H       83.501      -6.726     338.213
  H       83.755      -1.799     337.113
  H       85.210      -2.548     336.501
  H       84.931      -2.460     338.223

 6  7  8  9  10  11  12  13  14  15  25  28  32  33  34  35 0
 6-311+G(2d,p)
 ****
 36  39  40 0
 6-311+G(2d,p)
 ****
 1  2  3  4  5  16  17  18  19  20  21  22  23  24 0
 3-21G
 ****
 26  27  29  30  31  37  38  41  42  43  44  45  46  47 0
 3-21G
 ****
 48 0
 3-21G
 ****


