%nproc=1
%NoSave
%Mem=1900MB
#P OB98/GEN NMR

erre ene a

0 1
  C      332.496      73.390    -346.037
  O      331.474      73.128    -346.999
  P      331.778      73.568    -348.514
  C      331.430      76.099    -348.981
  O      332.306      75.089    -348.507
  C      332.173      77.183    -349.771
  O      332.824      78.123    -348.874
  C      333.246      76.626    -350.708
  O      333.299      77.474    -351.858
  C      334.529      76.820    -349.907
  O      335.673      76.812    -350.760
  C      334.230      78.156    -349.217
  N      335.062      78.385    -348.033
  C      336.352      78.886    -348.249
  O      336.764      79.047    -349.401
  N      337.156      79.150    -347.169
  C      336.723      78.889    -345.971
  N      337.568      79.178    -344.939
  C      335.396      78.305    -345.694
  C      334.629      78.088    -346.762
  O      330.322      73.675    -349.171
  O      332.639      72.607    -349.258
  H      335.529      77.476    -351.471
  H      330.298      73.189    -350.018
  H      335.095      78.082    -344.681
  H      333.637      77.660    -346.659
  H      334.385      78.992    -349.905
  H      334.639      76.009    -349.164
  H      333.068      75.590    -351.010
  H      331.435      77.749    -350.353
  H      338.463      79.584    -345.171
  H      330.903      76.563    -348.138
  H      337.342      79.006    -343.967
  H      330.645      75.631    -349.599
  P      332.227      77.242    -353.029
  C      333.099      74.822    -353.075
  O      331.954      75.656    -353.022
  O      333.139      77.407    -354.340
  O      331.026      78.130    -353.084
  H      332.573      77.350    -355.139
  H      332.782      73.786    -352.936
  H      333.801      75.088    -352.266
  H      333.594      74.918    -354.045
  H      332.174      73.053    -345.074
  H      332.690      74.442    -346.000
  H      333.390      72.872    -346.316

 3  4  5  6  7  8  9  10  11  12  13  21  23  27  28  29  30  32 0
 6-311+G(2d,p)
 ****
 34  35 0
 6-311+G(2d,p)
 ****
 1  2  14  15  16  17  18  19  20  22  24  25  26 0
 3-21G
 ****
 31  33  36  37  38  39  40  41  42  43  44  45  46 0
 3-21G
 ****


