%nproc=1
%NoSave
%Mem=1900MB
#P OB98/GEN NMR

erre ene a

0 1
  C     -116.883    -880.457    -261.449
  O     -117.429    -879.439    -260.639
  H     -116.470    -881.231    -260.801
  H     -116.080    -880.058    -262.070
  H     -117.656    -880.903    -262.080
  P     -118.105    -878.173    -261.354
  C     -120.162    -878.107    -259.781
  O     -119.679    -878.363    -261.090
  C     -121.445    -878.889    -259.529
  O     -121.199    -880.313    -259.507
  C     -122.126    -878.601    -258.193
  O     -122.776    -877.343    -258.142
  C     -123.099    -879.764    -258.137
  O     -124.204    -879.509    -259.023
  C     -122.214    -880.917    -258.657
  N     -121.587    -881.678    -257.574
  C     -122.441    -882.458    -256.780
  O     -123.655    -882.475    -256.992
  N     -121.905    -883.169    -255.740
  C     -120.635    -883.102    -255.491
  N     -120.155    -883.821    -254.441
  C     -119.702    -882.278    -256.291
  C     -120.243    -881.603    -257.304
  O     -117.717    -877.935    -262.778
  O     -117.766    -876.937    -260.388
  H     -123.873    -879.621    -259.932
  H     -118.153    -876.123    -260.794
  H     -118.657    -882.227    -256.025
  H     -119.619    -880.973    -257.930
  H     -122.795    -881.606    -259.281
  H     -123.517    -879.928    -257.142
  H     -121.411    -878.704    -257.363
  H     -122.121    -878.695    -260.372
  H     -120.820    -884.373    -253.910
  H     -120.336    -877.029    -259.685
  H     -119.196    -883.763    -254.129
  H     -119.417    -878.414    -259.040
  P     -121.844    -876.034    -258.231
  C     -122.505    -875.733    -260.735
  O     -121.469    -875.861    -259.780
  O     -120.478    -876.514    -257.553
  O     -122.406    -874.805    -257.595
  H     -120.436    -876.215    -256.620
  H     -122.079    -875.627    -261.711
  H     -123.095    -874.870    -260.508
  H     -123.124    -876.605    -260.709

 6  7  8  9  10  11  12  13  14  15  16  26  30  31  32  33  35 0
 6-311+G(2d,p)
 ****
 37  38 0
 6-311+G(2d,p)
 ****
 1  2  3  4  5  17  18  19  20  21  22  23  24  25 0
 3-21G
 ****
 27  28  29  34  36  39  40  41  42  43  44  45  46 0
 3-21G
 ****


