%nproc=1
%NoSave
%Mem=1900MB
#P OB98/GEN NMR

erre ene a

0 1
  C      282.129    -375.501     238.717
  O      282.241    -376.224     239.928
  H      282.950    -375.778     238.050
  H      281.183    -375.769     238.236
  H      282.140    -374.424     238.902
  P      283.395    -375.775     240.942
  C      282.154    -373.890     242.224
  O      283.145    -374.219     241.260
  C      282.249    -372.415     242.611
  O      281.888    -371.612     241.452
  C      281.331    -371.999     243.772
  O      282.033    -371.059     244.594
  C      280.184    -371.292     243.073
  O      279.529    -370.350     243.916
  C      280.900    -370.660     241.891
  N      279.250    -366.895     238.898
  C      280.354    -367.021     239.665
  N      280.749    -368.087     240.388
  C      279.908    -369.114     240.216
  C      278.743    -369.143     239.460
  C      278.417    -367.956     238.787
  N      277.259    -367.798     238.058
  N      278.119    -370.371     239.579
  C      278.879    -371.067     240.412
  N      279.971    -370.346     240.826
  O      284.697    -375.760     240.003
  O      283.587    -376.652     242.139
  H      278.760    -369.986     243.440
  H      285.098    -376.646     239.987
  H      281.001    -366.145     239.709
  H      278.670    -372.061     240.770
  H      281.420    -369.721     242.156
  H      279.448    -372.030     242.741
  H      280.988    -372.840     244.386
  H      283.298    -372.184     242.846
  H      282.311    -374.502     243.125
  H      277.051    -366.872     237.701
  H      276.572    -368.536     238.062
  H      281.161    -374.112     241.816
  P      283.267    -371.601     245.463
  C      285.181    -370.775     243.902
  O      284.494    -371.885     244.469
  O      282.792    -373.068     245.890
  O      283.587    -370.759     246.651
  H      283.151    -373.294     246.764
  H      285.967    -371.128     243.267
  H      285.597    -370.176     244.685
  H      284.496    -370.187     243.328

 6  7  8  9  10  11  12  13  14  15  25  28  32  33  34  35 0
 6-311+G(2d,p)
 ****
 36  39  40 0
 6-311+G(2d,p)
 ****
 1  2  3  4  5  16  17  18  19  20  21  22  23  24 0
 3-21G
 ****
 26  27  29  30  31  37  38  41  42  43  44  45  46  47 0
 3-21G
 ****
 48 0
 3-21G
 ****


