%nproc=1
%NoSave
%Mem=1900MB
#P OB98/GEN NMR

erre ene a

0 1
  C     -300.660    -319.850     325.160
  O     -301.638    -320.629     325.807
  P     -303.196    -320.281     325.684
  C     -304.015    -322.569     324.807
  O     -303.999    -321.659     325.909
  C     -305.214    -323.514     324.926
  O     -304.961    -324.466     326.002
  C     -306.538    -322.768     325.246
  O     -307.611    -323.065     324.351
  C     -306.783    -323.131     326.699
  O     -308.127    -322.978     327.112
  C     -306.186    -324.541     326.774
  N     -305.951    -324.980     328.153
  C     -305.789    -326.347     328.362
  O     -305.816    -327.196     327.480
  N     -305.640    -326.734     329.671
  C     -305.771    -325.929     330.757
  O     -305.724    -326.360     331.908
  C     -305.979    -324.505     330.479
  C     -306.035    -324.087     329.213
  O     -303.586    -319.543     324.448
  O     -303.505    -319.495     327.038
  H     -308.218    -323.398     327.983
  H     -303.331    -319.996     327.852
  H     -305.525    -327.723     329.831
  H     -306.091    -323.840     331.323
  H     -306.193    -323.040     328.966
  H     -306.831    -325.276     326.297
  H     -306.184    -322.449     327.320
  H     -306.410    -321.690     325.154
  H     -305.300    -324.068     323.985
  H     -303.097    -323.155     324.829
  H     -304.039    -322.008     323.867
  P     -308.927    -322.176     324.165
  C     -309.233    -321.842     321.597
  O     -309.596    -322.556     322.759
  O     -308.735    -320.708     324.394
  O     -309.953    -322.787     325.240
  H     -310.566    -322.083     325.536
  H     -310.077    -321.850     320.904
  H     -308.375    -322.335     321.126
  H     -308.974    -320.807     321.826
  H     -299.690    -320.250     325.369
  H     -300.715    -318.842     325.515
  H     -300.832    -319.866     324.104

 3  4  5  6  7  8  9  10  11  12  13  23  28  29  30  31  32 0
 6-311+G(2d,p)
 ****
 33  34 0
 6-311+G(2d,p)
 ****
 1  2  14  15  16  17  18  19  20  21  22  24  25  26  27 0
 3-21G
 ****
 35  36  37  38  39  40  41  42  43  44  45 0
 3-21G
 ****


