%nproc=1
%NoSave
%Mem=1900MB
#P OB98/GEN NMR

erre ene a

0 1
  C       -5.180    -899.329     400.606
  O       -5.310    -898.089     401.299
  P       -4.229    -896.929     400.947
  C       -5.605    -895.229     399.560
  O       -5.021    -895.559     400.810
  C       -6.793    -894.269     399.758
  O       -7.931    -894.939     400.354
  C       -6.489    -893.119     400.691
  O       -5.769    -892.079     400.056
  C       -7.902    -892.629     401.043
  O       -8.387    -891.759     399.992
  C       -8.702    -893.939     401.077
  N      -11.995    -896.339     404.097
  C      -12.109    -895.979     402.758
  N      -13.249    -896.359     402.125
  N      -11.173    -895.329     402.104
  C      -10.082    -895.059     402.838
  C       -9.857    -895.349     404.179
  C      -10.901    -896.029     404.913
  O      -10.861    -896.349     406.102
  N       -8.616    -894.929     404.589
  C       -8.080    -894.399     403.503
  N       -8.933    -894.449     402.420
  O       -3.817    -897.289     399.436
  O       -3.045    -896.929     401.870
  H       -9.123    -891.249     400.368
  H       -2.905    -896.969     399.258
  H      -12.737    -896.829     404.550
  H       -7.084    -893.979     403.434
  H       -9.663    -893.859     400.563
  H       -7.936    -892.049     401.977
  H      -13.974    -896.929     402.574
  H       -5.982    -893.449     401.599
  H      -13.317    -896.149     401.137
  H       -7.095    -893.899     398.763
  H       -5.994    -896.149     399.087
  H       -4.863    -894.809     398.900
  P       -4.413    -891.549     400.767
  C       -3.022    -893.739     400.864
  O       -3.232    -892.519     400.218
  O       -4.613    -892.009     402.296
  O       -4.205    -890.099     400.626
  H       -4.135    -891.369     402.881
  H       -3.970    -894.239     401.087
  H       -2.474    -893.579     401.807
  H       -2.420    -894.379     400.211
  H       -5.948    -900.000     400.929
  H       -4.222    -899.756     400.816
  H       -5.272    -899.161     399.553

 3  4  5  6  7  8  9  10  11  12  23  26  30  31  33  0
 6-311+G(2d,p)
 ****
 35  36  37  38 0
 6-311+G(2d,p)
 ****
 1  2  13  14  15  16  17  18  19  20  21  22  24  25  27  28  29 0
 3-21G
 ****
 32  34  39  40  41  42  43  44  45  46  47  48  49 0
 3-21G
 ****


