%nproc=1
%NoSave
%Mem=1900MB
#P OB98/GEN NMR

erre ene a

0 1
  C      169.467     -39.163     227.569
  O      170.502     -39.005     226.622
  H      168.656     -39.734     227.111
  H      169.079     -38.184     227.866
  H      169.822     -39.704     228.450
  P      171.890     -38.358     227.091
  C      174.194     -39.264     227.827
  O      172.841     -39.574     227.525
  C      175.088     -40.494     227.625
  O      174.701     -41.516     228.593
  C      174.977     -41.133     226.225
  O      176.251     -41.728     225.936
  C      173.918     -42.193     226.480
  O      173.811     -43.117     225.425
  C      174.403     -42.712     227.841
  N      173.458     -43.554     228.564
  C      173.564     -44.933     228.407
  O      174.405     -45.488     227.701
  N      172.647     -45.682     229.097
  C      171.672     -45.204     229.921
  O      170.899     -45.928     230.538
  C      171.606     -43.740     230.042
  C      172.486     -42.991     229.376
  O      171.787     -37.250     228.085
  O      172.555     -37.861     225.721
  H      172.439     -36.895     225.633
  H      173.210     -43.844     225.699
  H      172.717     -46.687     228.999
  H      170.835     -43.323     230.679
  H      172.469     -41.909     229.450
  H      175.345     -43.258     227.716
  H      172.933     -41.725     226.570
  H      174.722     -40.416     225.443
  H      176.126     -40.217     227.851
  H      174.245     -38.941     228.872
  H      174.527     -38.446     227.183
  P      177.329     -41.069     224.949
  C      179.245     -39.360     225.315
  O      177.921     -39.754     225.665
  O      176.817     -40.820     223.567
  O      178.565     -42.083     224.927
  H      179.055     -41.991     224.091
  H      179.511     -38.478     225.860
  H      179.291     -39.158     224.265
  H      179.927     -40.148     225.557

 6  7  8  9  10  11  12  13  14  15  16  27  31  32  33  34  35 0
 6-311+G(2d,p)
 ****
 36  37 0
 6-311+G(2d,p)
 ****
 1  2  3  4  5  17  18  19  20  21  22  23  24  25 0
 3-21G
 ****
 26  28  29  30  38  39  40  41  42  43  44  45 0
 3-21G
 ****


