%nproc=1
%NoSave
%Mem=1900MB
#P OB98/GEN NMR

erre ene a

0 1
  C      688.470    -244.795     370.868
  O      689.413    -243.798     370.528
  P      689.951    -242.777     371.644
  C      692.224    -243.952     371.862
  O      691.048    -243.533     372.536
  C      693.414    -243.085     372.271
  O      693.632    -243.159     373.698
  C      694.730    -243.507     371.647
  O      694.803    -243.165     370.270
  C      695.729    -242.772     372.535
  O      695.846    -241.394     372.150
  C      695.041    -242.886     373.916
  N      695.655    -243.895     374.763
  C      696.832    -243.509     375.430
  O      697.328    -242.407     375.215
  N      697.403    -244.396     376.306
  C      696.932    -245.589     376.411
  N      697.504    -246.407     377.338
  C      695.796    -246.091     375.610
  C      695.197    -245.188     374.834
  O      688.886    -242.068     372.421
  O      690.842    -241.730     370.814
  H      690.555    -240.820     371.050
  H      694.942    -241.032     372.127
  H      695.481    -247.119     375.688
  H      694.335    -245.459     374.224
  H      695.078    -241.916     374.439
  H      696.729    -243.206     372.499
  H      694.868    -244.588     371.764
  H      693.178    -242.041     372.011
  H      698.273    -246.029     377.882
  H      692.061    -243.861     370.780
  H      697.026    -247.223     377.732
  H      692.424    -245.007     372.095
  P      696.001    -243.819     369.424
  C      694.445    -245.370     368.064
  O      695.529    -245.275     368.964
  O      697.116    -244.106     370.522
  O      696.526    -242.948     368.331
  H      698.003    -243.946     370.146
  H      694.475    -246.363     367.588
  H      694.503    -244.607     367.284
  H      693.498    -245.279     368.606
  H      688.234    -245.374     370.000
  H      687.580    -244.332     371.241
  H      688.882    -245.434     371.621

 3  4  5  6  7  8  9  10  11  12  13  24  27  28  29  30  32 0
 6-311+G(2d,p)
 ****
 34  35 0
 6-311+G(2d,p)
 ****
 1  2  14  15  16  17  18  19  20  21  22  23  25  26 0
 3-21G
 ****
 31  33  36  37  38  39  40  41  42  43  44  45  46 0
 3-21G
 ****


