%nproc=1
%NoSave
%Mem=1900MB
#P OB98/GEN NMR

erre ene a

0 1
  C     -123.922      -7.831    -404.381
  O     -123.219      -8.054    -405.586
  H     -124.748      -7.141    -404.581
  H     -123.265      -7.377    -403.636
  H     -124.338      -8.767    -403.992
  P     -122.061      -9.163    -405.607
  C     -120.419      -7.467    -406.647
  O     -120.663      -8.376    -405.580
  C     -119.736      -6.206    -406.118
  O     -120.614      -5.537    -405.181
  C     -118.447      -6.477    -405.345
  O     -117.379      -6.787    -406.218
  C     -118.299      -5.177    -404.574
  O     -117.705      -4.155    -405.387
  C     -119.768      -4.824    -404.248
  N     -120.120      -5.159    -402.864
  C     -120.635      -4.121    -402.093
  O     -120.821      -2.974    -402.523
  N     -120.894      -4.419    -400.781
  C     -120.550      -5.586    -400.149
  O     -120.566      -5.720    -398.930
  C     -120.065      -6.664    -401.020
  C     -119.863      -6.401    -402.318
  O     -122.180     -10.207    -406.670
  O     -122.136      -9.816    -404.143
  H     -122.594     -10.674    -404.194
  H     -116.781      -4.437    -405.542
  H     -121.228      -3.659    -400.204
  H     -119.850      -7.628    -400.572
  H     -119.473      -7.175    -402.977
  H     -119.950      -3.753    -404.402
  H     -117.672      -5.303    -403.691
  H     -118.609      -7.300    -404.632
  H     -119.550      -5.529    -406.962
  H     -121.372      -7.196    -407.112
  H     -119.785      -7.962    -407.396
  P     -116.710      -8.248    -406.187
  C     -114.281      -7.403    -406.090
  O     -115.306      -8.142    -405.421
  O     -116.651      -8.943    -407.504
  O     -117.619      -9.066    -405.147
  H     -117.880      -9.914    -405.557
  H     -113.395      -7.399    -405.490
  H     -114.611      -6.397    -406.246
  H     -114.070      -7.860    -407.034

 6  7  8  9  10  11  12  13  14  15  16  27  31  32  33  34  35 0
 6-311+G(2d,p)
 ****
 36  37 0
 6-311+G(2d,p)
 ****
 1  2  3  4  5  17  18  19  20  21  22  23  24  25 0
 3-21G
 ****
 26  28  29  30  38  39  40  41  42  43  44  45 0
 3-21G
 ****


