%nproc=1
%NoSave
%Mem=1900MB
#P OB98/GEN NMR

erre ene a

0 1
  C      872.174    -871.076    -230.457
  O      872.591    -872.438    -230.605
  P      871.599    -873.461    -231.334
  C      871.980    -875.512    -229.771
  O      872.118    -874.961    -231.067
  C      872.812    -876.790    -229.641
  O      874.212    -876.558    -229.890
  C      872.743    -877.433    -228.264
  O      871.569    -878.221    -228.103
  C      873.975    -878.325    -228.288
  O      873.684    -879.531    -229.012
  C      874.984    -877.462    -229.064
  N      879.695    -877.194    -227.080
  C      879.102    -878.111    -227.865
  N      877.840    -878.132    -228.337
  C      877.167    -877.035    -227.932
  C      877.638    -876.015    -227.130
  C      878.966    -876.113    -226.692
  N      879.569    -875.165    -225.893
  N      876.669    -875.054    -226.926
  C      875.615    -875.490    -227.597
  N      875.875    -876.687    -228.220
  O      871.909    -873.222    -232.877
  O      870.152    -873.225    -231.024
  H      873.117    -880.084    -228.424
  H      871.091    -873.338    -233.403
  H      879.722    -878.966    -228.148
  H      874.668    -874.990    -227.668
  H      875.605    -878.060    -229.746
  H      874.309    -878.622    -227.294
  H      872.851    -876.665    -227.472
  H      872.439    -877.510    -230.396
  H      870.933    -875.729    -229.568
  H      880.543    -875.290    -225.640
  H      879.040    -874.346    -225.623
  H      872.295    -874.770    -229.037
  P      870.774    -878.069    -226.711
  C      871.108    -880.508    -225.871
  O      870.225    -879.527    -226.376
  O      869.466    -877.252    -227.142
  O      871.543    -877.383    -225.628
  H      869.159    -876.703    -226.388
  H      870.527    -881.318    -225.421
  H      871.768    -880.071    -225.108
  H      871.715    -880.921    -226.686
  H      872.939    -870.521    -229.954
  H      871.272    -871.040    -229.883
  H      872.000    -870.649    -231.423

 3  4  5  6  7  8  9  10  11  12  22  25  29  30  31  32 0
 6-311+G(2d,p)
 ****
 33  36  37 0
 6-311+G(2d,p)
 ****
 1  2  13  14  15  16  17  18  19  20  21  23  24  26 0
 3-21G
 ****
 27  28  34  35  38  39  40  41  42  43  44  45  46  47  48 0
 3-21G
 ****


