%nproc=1
%NoSave
%Mem=1900MB
#P OB98/GEN NMR

erre ene a

0 1
  C     -594.872     287.471    -594.242
  O     -593.605     287.118    -593.718
  H     -595.289     288.282    -593.642
  H     -595.561     286.621    -594.199
  H     -594.772     287.812    -595.275
  P     -592.856     285.844    -594.335
  C     -594.634     284.233    -593.364
  O     -593.262     284.614    -593.396
  C     -594.816     283.015    -592.462
  O     -594.188     281.857    -593.047
  C     -594.178     283.181    -591.094
  O     -594.960     284.025    -590.270
  C     -594.075     281.737    -590.641
  O     -595.332     281.256    -590.142
  C     -593.700     281.031    -591.967
  N     -592.268     280.794    -592.090
  C     -591.666     280.108    -591.028
  O     -592.334     279.741    -590.065
  N     -590.311     279.885    -591.082
  C     -589.623     280.287    -592.106
  N     -588.287     280.031    -592.096
  C     -590.222     280.997    -593.251
  C     -591.535     281.215    -593.177
  O     -591.383     285.977    -594.580
  O     -593.667     285.549    -595.683
  H     -595.423     281.624    -589.244
  H     -593.277     286.042    -596.432
  H     -589.615     281.305    -594.086
  H     -592.056     281.734    -593.977
  H     -594.220     280.064    -592.048
  H     -593.339     281.611    -589.853
  H     -593.162     283.577    -591.195
  H     -595.891     282.808    -592.376
  H     -587.919     279.551    -591.284
  H     -594.922     283.986    -594.389
  H     -587.674     280.217    -592.871
  H     -595.258     285.059    -593.014
  P     -594.336     285.355    -589.635
  C     -593.195     284.280    -587.587
  O     -594.275     285.089    -588.051
  O     -594.998     286.629    -590.041
  O     -592.794     285.276    -590.067
  H     -592.678     285.487    -591.026
  H     -593.260     284.174    -586.524
  H     -592.266     284.744    -587.843
  H     -593.250     283.315    -588.046

 6  7  8  9  10  11  12  13  14  15  16  26  30  31  32  33  35 0
 6-311+G(2d,p)
 ****
 37  38 0
 6-311+G(2d,p)
 ****
 1  2  3  4  5  17  18  19  20  21  22  23  24  25 0
 3-21G
 ****
 27  28  29  34  36  39  40  41  42  43  44  45  46 0
 3-21G
 ****


