%nproc=1
%NoSave
%Mem=1900MB
#P OB98/GEN NMR

erre ene a

0 1
  C      -72.795     767.760    -398.268
  O      -74.102     767.509    -398.742
  P      -74.735     766.040    -398.646
  C      -75.609     766.309    -396.235
  O      -74.678     765.652    -397.090
  C      -76.856     765.449    -396.019
  O      -77.503     765.171    -397.281
  C      -76.572     764.091    -395.392
  O      -76.351     764.231    -393.996
  C      -77.839     763.333    -395.756
  O      -78.906     763.619    -394.843
  C      -78.155     763.888    -397.165
  N      -77.763     762.982    -398.227
  C      -78.506     761.799    -398.328
  O      -79.410     761.568    -397.533
  N      -78.181     760.894    -399.308
  C      -77.167     761.133    -400.096
  N      -76.889     760.192    -401.037
  C      -76.341     762.346    -399.996
  C      -76.684     763.219    -399.051
  O      -74.159     765.034    -399.581
  O      -76.303     766.304    -398.886
  H      -79.147     764.553    -394.988
  H      -76.488     766.498    -399.840
  H      -75.503     762.495    -400.666
  H      -76.125     764.137    -398.905
  H      -79.237     764.085    -397.262
  H      -77.687     762.246    -395.744
  H      -75.709     763.628    -395.877
  H      -77.558     766.018    -395.398
  H      -77.458     759.357    -401.051
  H      -75.898     767.255    -396.705
  H      -76.111     760.258    -401.669
  H      -75.125     766.535    -395.279
  P      -75.554     763.087    -393.196
  C      -73.230     763.742    -394.067
  O      -74.233     762.744    -394.032
  O      -76.370     761.909    -392.787
  O      -74.985     763.860    -391.922
  H      -75.121     763.299    -391.129
  H      -72.282     763.282    -394.362
  H      -73.108     764.207    -393.083
  H      -73.496     764.506    -394.803
  H      -72.553     768.791    -398.418
  H      -72.098     767.149    -398.803
  H      -72.744     767.530    -397.224

 3  4  5  6  7  8  9  10  11  12  13  23  27  28  29  30  32 0
 6-311+G(2d,p)
 ****
 34  35 0
 6-311+G(2d,p)
 ****
 1  2  14  15  16  17  18  19  20  21  22  24  25  26 0
 3-21G
 ****
 31  33  36  37  38  39  40  41  42  43  44  45  46 0
 3-21G
 ****


