%nproc=1
%NoSave
%Mem=1900MB
#P OB98/GEN NMR

erre ene a

0 1
  C      -58.900    -208.590    -472.592
  O      -58.445    -209.572    -471.661
  P      -56.936    -209.512    -471.125
  C      -57.709    -208.753    -468.772
  O      -56.856    -208.497    -469.885
  C      -57.057    -208.227    -467.490
  O      -55.731    -208.773    -467.304
  C      -56.857    -206.717    -467.495
  O      -58.026    -205.921    -467.418
  C      -55.813    -206.525    -466.410
  O      -56.401    -206.491    -465.112
  C      -54.948    -207.799    -466.581
  N      -53.677    -207.532    -467.260
  C      -52.673    -206.964    -466.477
  O      -52.829    -206.657    -465.297
  N      -51.485    -206.731    -467.118
  C      -51.220    -206.965    -468.437
  O      -50.141    -206.712    -468.961
  C      -52.327    -207.535    -469.219
  C      -53.489    -207.787    -468.607
  O      -55.885    -209.330    -472.166
  O      -56.765    -210.939    -470.406
  H      -56.966    -205.699    -465.064
  H      -55.870    -211.271    -470.620
  H      -50.745    -206.330    -466.564
  H      -52.153    -207.733    -470.265
  H      -54.312    -208.217    -469.164
  H      -54.716    -208.237    -465.605
  H      -55.266    -205.582    -466.536
  H      -56.377    -206.451    -468.447
  H      -57.665    -208.549    -466.636
  H      -57.895    -209.827    -468.689
  H      -58.680    -208.278    -468.952
  P      -58.370    -204.769    -468.478
  C      -60.467    -206.141    -469.146
  O      -59.365    -205.374    -469.576
  O      -57.246    -203.919    -468.964
  O      -59.365    -203.839    -467.617
  H      -59.240    -202.918    -467.896
  H      -61.024    -206.489    -470.027
  H      -61.136    -205.541    -468.527
  H      -60.122    -207.019    -468.587
  H      -59.923    -208.781    -472.840
  H      -58.303    -208.636    -473.479
  H      -58.814    -207.617    -472.155

 3  4  5  6  7  8  9  10  11  12  13  23  28  29  30  31  32 0
 6-311+G(2d,p)
 ****
 33  34 0
 6-311+G(2d,p)
 ****
 1  2  14  15  16  17  18  19  20  21  22  24  25  26  27 0
 3-21G
 ****
 35  36  37  38  39  40  41  42  43  44  45 0
 3-21G
 ****


