%nproc=1
%NoSave
%Mem=1900MB
#P OB98/GEN NMR

erre ene a

0 1
  C     -137.043     324.217    -101.260
  O     -137.352     325.612    -101.179
  P     -137.345     326.451    -102.545
  C     -139.739     325.957    -103.438
  O     -138.844     326.908    -102.870
  C     -141.052     325.933    -102.649
  O     -140.852     325.439    -101.315
  C     -141.670     327.311    -102.476
  O     -142.324     327.714    -103.665
  C     -142.613     327.089    -101.303
  O     -143.920     326.677    -101.736
  C     -141.920     325.964    -100.502
  N     -141.432     326.407     -99.208
  C     -142.317     326.264     -98.133
  O     -143.446     325.808     -98.319
  N     -141.911     326.672     -96.886
  C     -140.733     327.199     -96.734
  N     -140.388     327.589     -95.475
  C     -139.779     327.390     -97.845
  C     -140.190     326.982     -99.042
  O     -137.044     325.343    -103.657
  O     -136.330     327.551    -102.574
  H     -144.483     326.701    -100.938
  H     -136.527     325.725    -104.386
  H     -138.815     327.841     -97.668
  H     -139.553     327.082     -99.915
  H     -142.616     325.130    -100.333
  H     -142.751     328.009    -100.719
  H     -140.897     328.036    -102.199
  H     -141.760     325.266    -103.169
  H     -141.068     327.438     -94.737
  H     -139.282     324.964    -103.432
  H     -139.505     328.009     -95.247
  H     -139.916     326.215    -104.487
  P     -142.272     329.268    -104.050
  C     -142.819     329.072    -106.550
  O     -143.307     329.428    -105.271
  O     -140.862     329.384    -104.796
  O     -142.401     330.256    -102.938
  H     -140.661     330.314    -105.005
  H     -143.665     329.025    -107.244
  H     -142.338     328.090    -106.525
  H     -142.112     329.827    -106.909
  H     -137.084     323.785    -100.282
  H     -136.060     324.092    -101.664
  H     -137.754     323.731    -101.895

 3  4  5  6  7  8  9  10  11  12  13  21  23  27  28  29  30  32 0
 6-311+G(2d,p)
 ****
 34  35 0
 6-311+G(2d,p)
 ****
 1  2  14  15  16  17  18  19  20  22  24  25  26 0
 3-21G
 ****
 31  33  36  37  38  39  40  41  42  43  44  45  46 0
 3-21G
 ****


