%nproc=1
%NoSave
%Mem=1900MB
#P OB98/GEN NMR

erre ene a

0 1
  C      -63.289     333.696    -125.028
  O      -64.376     334.247    -124.286
  P      -65.804     334.605    -124.898
  C      -67.206     334.138    -122.731
  O      -66.757     335.074    -123.702
  C      -68.356     334.672    -121.858
  O      -67.836     335.643    -120.914
  C      -69.382     335.416    -122.720
  O      -70.394     334.692    -123.400
  C      -69.914     336.524    -121.818
  O      -71.109     336.144    -121.131
  C      -68.770     336.739    -120.819
  N      -68.385     341.676    -119.528
  C      -69.311     340.735    -119.119
  N      -70.289     341.173    -118.294
  N      -69.287     339.485    -119.491
  C      -68.309     339.202    -120.384
  C      -67.346     340.052    -120.880
  C      -67.343     341.424    -120.411
  O      -66.541     342.290    -120.736
  N      -66.529     339.417    -121.782
  C      -67.015     338.194    -121.852
  N      -68.093     338.008    -121.011
  O      -66.366     333.609    -125.859
  O      -65.526     335.967    -125.719
  H      -70.931     335.313    -120.658
  H      -66.131     335.960    -126.487
  H      -68.436     342.623    -119.191
  H      -66.621     337.401    -122.479
  H      -69.143     336.738    -119.787
  H      -70.161     337.416    -122.410
  H      -70.432     342.144    -118.067
  H      -68.823     335.927    -123.512
  H      -71.086     340.545    -118.166
  H      -68.793     333.872    -121.256
  H      -66.341     333.886    -122.110
  H      -67.517     333.214    -123.219
  P      -70.418     334.350    -124.964
  C      -72.545     332.960    -124.605
  O      -71.925     333.985    -125.364
  O      -69.683     332.929    -125.063
  O      -69.754     335.356    -125.843
  H      -69.415     332.749    -125.984
  H      -73.420     332.593    -125.151
  H      -72.866     333.356    -123.643
  H      -71.852     332.124    -124.448
  H      -62.451     333.553    -124.379
  H      -63.019     334.367    -125.817
  H      -63.582     332.755    -125.445

 3  4  5  6  7  8  9  10  11  12  23  26  30  31 0
 6-311+G(2d,p)
 ****
 33  35  36  37  38 0
 6-311+G(2d,p)
 ****
 1  2  13  14  15  16  17  18  19  20  21  22  24  25 0
 3-21G
 ****
 27  28  29  32  34  39  40  41  42  43  44  45  46  47  48  49 0
 3-21G
 ****


