%nproc=1
%NoSave
%Mem=1900MB
#P OB98/GEN NMR

erre ene a

0 1
  C      -71.728     398.088    -420.390
  O      -71.264     398.701    -419.200
  P      -71.303     400.295    -419.031
  C      -73.758     400.533    -418.299
  O      -72.814     400.750    -419.342
  C      -74.865     401.580    -418.347
  O      -74.345     402.838    -417.858
  C      -75.408     401.823    -419.753
  O      -76.815     402.083    -419.676
  C      -74.714     403.101    -420.207
  O      -75.488     403.795    -421.196
  C      -74.546     403.839    -418.877
  N      -72.529     408.131    -420.842
  C      -73.722     407.533    -421.040
  N      -74.181     406.379    -420.501
  C      -73.288     405.869    -419.638
  C      -72.030     406.375    -419.335
  C      -71.656     407.564    -419.980
  N      -70.444     408.189    -419.766
  N      -71.388     405.560    -418.423
  C      -72.242     404.592    -418.173
  N      -73.411     404.740    -418.875
  O      -70.268     401.039    -419.801
  O      -71.169     400.540    -417.458
  H      -76.416     403.801    -420.884
  H      -70.617     401.325    -417.284
  H      -74.396     408.041    -421.722
  H      -72.064     403.763    -417.501
  H      -75.446     404.412    -418.613
  H      -73.746     402.850    -420.654
  H      -75.217     400.987    -420.438
  H      -75.673     401.271    -417.673
  H      -73.237     400.610    -417.337
  H      -70.310     409.093    -420.177
  H      -69.869     407.863    -418.999
  H      -74.172     399.522    -418.384
  P      -77.603     402.099    -421.078
  C      -78.905     399.887    -420.648
  O      -77.914     400.559    -421.386
  O      -76.875     402.875    -422.122
  O      -79.006     402.734    -420.631
  H      -79.186     402.578    -419.680
  H      -78.947     398.845    -420.975
  H      -79.885     400.349    -420.821
  H      -78.673     399.913    -419.576
  H      -71.620     397.026    -420.310
  H      -71.155     398.443    -421.221
  H      -72.759     398.331    -420.538

 3  4  5  6  7  8  9  10  11  12  22  25  29  30  31  32 0
 6-311+G(2d,p)
 ****
 33  36  37 0
 6-311+G(2d,p)
 ****
 1  2  13  14  15  16  17  18  19  20  21  23  24  26 0
 3-21G
 ****
 27  28  34  35  38  39  40  41  42  43  44  45  46  47  48 0
 3-21G
 ****


