%nproc=1
%NoSave
%Mem=1900MB
#P OB98/GEN NMR

erre ene a

0 1
  C       30.583      16.093      -7.216
  O       30.410      16.175      -5.817
  H       31.580      15.697      -7.422
  H       30.504      17.086      -7.663
  H       29.843      15.424      -7.662
  P       28.959      16.536      -5.238
  C       28.556      14.135      -4.389
  O       28.107      15.178      -5.244
  C       27.358      13.412      -3.780
  O       26.370      13.142      -4.796
  C       27.698      12.059      -3.163
  O       28.340      12.220      -1.914
  C       26.317      11.424      -3.098
  O       25.585      11.907      -1.961
  C       25.684      11.928      -4.417
  N       25.734      10.940      -5.493
  C       25.277       9.663      -5.184
  O       24.884       9.344      -4.064
  N       25.305       8.754      -6.208
  C       25.812       8.972      -7.456
  O       25.863       8.105      -8.324
  C       26.313      10.328      -7.716
  C       26.252      11.235      -6.739
  O       28.280      17.705      -5.868
  O       29.228      16.782      -3.678
  H       25.710      12.876      -1.941
  H       29.272      17.740      -3.500
  H       24.990       7.821      -6.000
  H       26.728      10.535      -8.693
  H       26.622      12.240      -6.910
  H       24.634      12.200      -4.253
  H       26.357      10.339      -3.008
  H       28.320      11.475      -3.850
  H       26.902      14.075      -3.034
  H       29.164      14.573      -3.589
  H       29.173      13.443      -4.968
  P       29.313      11.087      -1.342
  C       31.180      12.820      -1.600
  O       30.809      11.461      -1.792
  O       28.905       9.684      -1.646
  O       29.332      11.354       0.235
  H       28.805      10.670       0.693
  H       32.188      12.964      -1.929
  H       31.105      13.067      -0.562
  H       30.526      13.451      -2.165

 6  7  8  9  10  11  12  13  14  15  16  26  31  32  33  34  35 0
 6-311+G(2d,p)
 ****
 36  37 0
 6-311+G(2d,p)
 ****
 1  2  3  4  5  17  18  19  20  21  22  23  24  25 0
 3-21G
 ****
 27  28  29  30  38  39  40  41  42  43  44  45 0
 3-21G
 ****


