%nproc=1
%NoSave
%Mem=1900MB
#P OB98/GEN NMR

erre ene a

0 1
  C     -412.833     348.924    -298.457
  O     -412.309     349.764    -297.444
  P     -413.345     350.656    -296.603
  C     -413.658     353.225    -296.317
  O     -413.223     352.158    -297.157
  C     -413.105     354.563    -296.824
  O     -411.663     354.586    -296.624
  C     -413.369     354.854    -298.314
  O     -413.569     356.275    -298.427
  C     -412.059     354.424    -298.948
  O     -411.878     354.927    -300.260
  C     -411.074     354.926    -297.904
  N     -406.033     355.825    -298.093
  C     -407.092     356.649    -297.875
  N     -408.406     356.331    -297.831
  C     -408.576     355.010    -298.028
  C     -407.604     354.060    -298.272
  C     -406.273     354.503    -298.305
  N     -405.199     353.678    -298.530
  N     -408.177     352.810    -298.456
  C     -409.466     353.010    -298.324
  N     -409.761     354.320    -298.036
  O     -412.650     350.759    -295.159
  O     -414.733     350.104    -296.517
  H     -412.643     354.693    -300.816
  H     -413.317     350.700    -294.449
  H     -406.846     357.705    -297.721
  H     -410.235     352.247    -298.413
  H     -410.946     356.020    -297.929
  H     -412.043     353.341    -299.027
  H     -414.258     354.325    -298.695
  H     -413.527     355.354    -296.196
  H     -413.289     353.058    -295.310
  H     -404.310     354.121    -298.728
  H     -405.406     352.750    -298.893
  H     -414.752     353.230    -296.290
  P     -414.780     356.807    -299.344
  C     -414.949     357.260    -301.866
  O     -414.258     356.579    -300.843
  O     -414.603     358.383    -299.175
  O     -416.146     356.279    -299.006
  H     -413.695     358.669    -299.341
  H     -414.431     357.099    -302.816
  H     -414.969     358.345    -301.658
  H     -415.975     356.879    -301.947
  H     -412.033     348.394    -298.930
  H     -413.345     349.519    -299.184
  H     -413.517     348.225    -298.022

 3  4  5  6  7  8  9  10  11  12  22  25  29  30  31  32 0
 6-311+G(2d,p)
 ****
 33  36  37 0
 6-311+G(2d,p)
 ****
 1  2  13  14  15  16  17  18  19  20  21  23  24  26 0
 3-21G
 ****
 27  28  34  35  38  39  40  41  42  43  44  45  46  47  48 0
 3-21G
 ****


