%nproc=1
%NoSave
%Mem=1900MB
#P OB98/GEN NMR

erre ene a

0 1
  C     -569.113    -826.384    -239.042
  O     -569.814    -827.616    -238.971
  H     -569.457    -825.838    -239.928
  H     -568.041    -826.560    -239.132
  H     -569.325    -825.787    -238.150
  P     -569.389    -828.623    -237.799
  C     -571.681    -829.827    -237.545
  O     -570.319    -829.929    -237.947
  C     -572.503    -830.881    -238.296
  O     -572.711    -830.452    -239.661
  C     -571.824    -832.240    -238.392
  O     -571.942    -833.002    -237.199
  C     -572.598    -832.860    -239.548
  O     -573.824    -833.464    -239.107
  C     -572.863    -831.649    -240.455
  N     -571.995    -831.649    -241.627
  C     -572.634    -831.846    -242.853
  O     -573.846    -832.008    -242.967
  N     -571.810    -831.881    -243.953
  C     -570.449    -831.801    -243.939
  O     -569.769    -831.909    -244.951
  C     -569.830    -831.617    -242.615
  C     -570.616    -831.546    -241.539
  O     -569.942    -827.906    -236.481
  O     -567.928    -828.907    -237.710
  H     -569.200    -827.526    -235.979
  H     -573.582    -834.059    -238.369
  H     -572.248    -832.021    -244.855
  H     -568.750    -831.548    -242.566
  H     -570.185    -831.421    -240.546
  H     -573.904    -831.662    -240.808
  H     -572.010    -833.642    -240.036
  H     -570.782    -832.122    -238.683
  H     -573.484    -830.964    -237.807
  H     -572.069    -828.835    -237.801
  H     -571.749    -829.976    -236.469
  P     -570.640    -833.765    -236.666
  C     -570.772    -832.853    -234.195
  O     -570.859    -833.964    -235.100
  O     -569.545    -832.609    -236.788
  O     -570.345    -835.014    -237.447
  H     -569.945    -831.723    -236.717
  H     -570.949    -833.192    -233.196
  H     -571.506    -832.120    -234.458
  H     -569.796    -832.418    -234.257

 6  7  8  9  10  11  12  13  14  15  16  27  31  32  33  34  35 0
 6-311+G(2d,p)
 ****
 36  37 0
 6-311+G(2d,p)
 ****
 1  2  3  4  5  17  18  19  20  21  22  23  24  25 0
 3-21G
 ****
 26  28  29  30  38  39  40  41  42  43  44  45 0
 3-21G
 ****


