%nproc=1
%NoSave
%Mem=1900MB
#P OB98/GEN NMR

erre ene a

0 1
  C       46.433     204.340    -152.542
  O       47.434     204.998    -151.755
  P       48.654     204.199    -151.084
  C       47.909     204.580    -148.649
  O       48.924     204.803    -149.623
  C       48.273     205.203    -147.297
  O       49.381     204.506    -146.695
  C       48.686     206.670    -147.367
  O       47.550     207.504    -147.478
  C       49.471     206.820    -146.066
  O       48.575     207.012    -144.958
  C       50.169     205.458    -145.959
  N       55.103     205.247    -144.628
  C       53.967     205.165    -143.902
  N       52.689     205.235    -144.328
  C       52.644     205.382    -145.664
  C       53.716     205.488    -146.534
  C       55.002     205.415    -145.967
  N       56.155     205.513    -146.707
  N       53.279     205.656    -147.831
  C       51.964     205.639    -147.747
  N       51.533     205.476    -146.458
  O       49.872     204.107    -151.944
  O       48.066     202.740    -150.779
  H       49.112     207.274    -144.189
  H       48.787     202.085    -150.796
  H       54.103     205.026    -142.831
  H       51.286     205.735    -148.584
  H       50.204     205.103    -144.922
  H       50.158     207.671    -146.083
  H       49.359     206.829    -148.215
  H       47.410     205.081    -146.629
  H       47.774     203.499    -148.531
  H       57.038     205.484    -146.221
  H       56.088     205.685    -147.700
  H       46.972     205.014    -149.017
  P       47.206     208.213    -148.873
  C       48.169     210.445    -148.053
  O       47.035     209.780    -148.577
  O       46.103     207.591    -149.659
  O       48.593     208.158    -149.676
  H       48.408     208.118    -150.632
  H       48.241     210.249    -146.980
  H       48.049     211.519    -148.212
  H       49.084     210.111    -148.550
  H       45.721     205.060    -152.888
  H       45.935     203.605    -151.944
  H       46.895     203.864    -153.381

 3  4  5  6  7  8  9  10  11  12  22  25  29  30  31  32 0
 6-311+G(2d,p)
 ****
 33  36  37 0
 6-311+G(2d,p)
 ****
 1  2  13  14  15  16  17  18  19  20  21  23  24  26 0
 3-21G
 ****
 27  28  34  35  38  39  40  41  42  43  44  45  46  47  48 0
 3-21G
 ****


