%nproc=1
%NoSave
%Mem=1900MB
#P OB98/GEN NMR

erre ene a

0 1
  C      353.934     759.427      37.076
  O      355.074     758.659      37.391
  H      353.990     760.376      37.615
  H      353.033     758.893      37.397
  H      353.874     759.637      36.005
  P      355.481     757.451      36.422
  C      357.566     758.490      35.311
  O      356.221     758.075      35.136
  C      358.530     757.670      34.450
  O      358.150     757.776      33.062
  C      359.977     758.158      34.558
  O      360.709     757.594      35.631
  C      360.552     757.723      33.213
  O      361.067     756.382      33.270
  C      359.348     757.793      32.267
  N      362.148     761.027      29.466
  C      362.573     760.050      30.344
  N      363.909     759.957      30.522
  N      361.758     759.266      30.997
  C      360.452     759.538      30.789
  C      359.903     760.496      29.950
  C      360.816     761.314      29.182
  O      360.491     762.180      28.376
  N      358.538     760.515      30.035
  C      358.263     759.638      30.979
  N      359.379     758.963      31.410
  O      354.078     756.972      35.812
  O      356.193     756.311      37.078
  H      361.739     756.346      33.986
  H      354.114     756.014      35.631
  H      362.816     761.584      28.968
  H      357.269     759.412      31.354
  H      359.302     756.918      31.608
  H      361.389     758.364      32.919
  H      364.577     760.596      30.112
  H      360.013     759.249      34.610
  H      364.255     759.394      31.304
  H      358.443     756.612      34.727
  H      357.801     758.358      36.369
  H      357.669     759.561      35.083
  P      361.362     758.518      36.754
  C      359.055     759.270      37.771
  O      360.291     759.624      37.184
  O      362.453     759.362      35.938
  O      361.963     757.796      37.922
  H      363.339     758.973      36.055
  H      358.493     760.156      37.980
  H      359.232     758.737      38.682
  H      358.504     758.649      37.096

 6  7  8  9  10  11  12  13  14  15  26  29  33  34 0
 6-311+G(2d,p)
 ****
 36  38  39  40  41 0
 6-311+G(2d,p)
 ****
 1  2  3  4  5  16  17  18  19  20  21  22  23  24  25 0
 3-21G
 ****
 27  28  30  31  32  35  37  42  43  44  45  46  47 0
 3-21G
 ****
 48  49 0
 3-21G
 ****


