%nproc=1
%NoSave
%Mem=1900MB
#P OB98/GEN NMR

erre ene a

0 1
  C      176.526      77.149     -49.267
  O      177.225      77.500     -48.091
  H      175.649      77.799     -49.359
  H      176.184      76.112     -49.209
  H      177.155      77.284     -50.151
  P      178.645      76.811     -47.804
  C      179.553      74.398     -47.751
  O      178.397      75.228     -47.763
  C      179.149      72.943     -47.527
  O      178.669      72.765     -46.175
  C      178.010      72.476     -48.425
  O      178.453      72.239     -49.749
  C      177.536      71.245     -47.671
  O      178.358      70.110     -47.969
  C      177.716      71.678     -46.199
  N      176.449      72.074     -45.585
  C      175.753      71.072     -44.914
  O      176.156      69.915     -44.814
  N      174.531      71.433     -44.406
  C      173.898      72.624     -44.626
  O      172.712      72.815     -44.368
  C      174.704      73.663     -45.288
  C      175.919      73.340     -45.740
  O      179.410      77.366     -46.647
  O      179.444      77.009     -49.179
  H      180.077      77.746     -49.078
  H      178.305      69.987     -48.940
  H      174.002      70.699     -43.955
  H      174.264      74.646     -45.414
  H      176.521      74.080     -46.262
  H      178.151      70.863     -45.608
  H      176.507      70.989     -47.928
  H      177.206      73.223     -48.425
  H      180.037      72.312     -47.661
  H      180.212      74.724     -46.934
  H      180.083      74.512     -48.702
  P      177.510      72.591     -50.994
  C      175.572      71.505     -52.290
  O      176.560      71.331     -51.279
  O      178.216      73.127     -52.196
  O      176.486      73.677     -50.409
  H      176.459      74.445     -51.014
  H      175.003      70.605     -52.391
  H      176.050      71.731     -53.220
  H      174.921      72.310     -52.018

 6  7  8  9  10  11  12  13  14  15  16  27  31  32  33  34  35 0
 6-311+G(2d,p)
 ****
 36  37 0
 6-311+G(2d,p)
 ****
 1  2  3  4  5  17  18  19  20  21  22  23  24  25 0
 3-21G
 ****
 26  28  29  30  38  39  40  41  42  43  44  45 0
 3-21G
 ****


