%nproc=1
%NoSave
%Mem=1900MB
#P OB98/GEN NMR

erre ene a

0 1
  C      235.455     167.306    -105.785
  O      234.472     168.274    -106.090
  H      235.031     166.313    -105.955
  H      235.760     167.380    -104.738
  H      236.324     167.428    -106.436
  P      234.811     169.818    -105.809
  C      235.613     170.527    -108.169
  O      235.990     170.159    -106.851
  C      236.844     170.941    -108.972
  O      236.479     171.343    -110.309
  C      237.609     172.133    -108.404
  O      238.370     171.817    -107.249
  C      238.482     172.479    -109.599
  O      239.562     171.535    -109.696
  C      237.480     172.296    -110.767
  N      236.845     173.548    -111.175
  C      237.700     174.588    -111.561
  O      238.921     174.432    -111.549
  N      237.153     175.797    -111.918
  C      235.868     175.960    -111.873
  N      235.381     177.192    -112.191
  C      234.930     174.889    -111.490
  C      235.478     173.724    -111.150
  O      235.090     170.186    -104.387
  O      233.579     170.618    -106.444
  H      239.162     170.651    -109.787
  H      233.736     171.580    -106.285
  H      233.868     175.079    -111.462
  H      234.856     172.892    -110.841
  H      237.975     171.850    -111.637
  H      238.926     173.476    -109.536
  H      236.934     172.973    -108.210
  H      237.489     170.058    -109.068
  H      236.055     177.914    -112.408
  H      234.894     171.349    -108.101
  H      234.447     177.475    -111.917
  H      235.139     169.682    -108.676
  P      239.226     172.994    -106.570
  C      237.483     173.817    -104.817
  O      238.171     174.077    -106.028
  O      239.899     173.717    -107.827
  O      240.232     172.558    -105.551
  H      240.793     173.363    -107.999
  H      236.823     174.631    -104.600
  H      238.190     173.709    -104.021
  H      236.916     172.915    -104.916

 6  7  8  9  10  11  12  13  14  15  16  26  30  31  32  33  35 0
 6-311+G(2d,p)
 ****
 37  38 0
 6-311+G(2d,p)
 ****
 1  2  3  4  5  17  18  19  20  21  22  23  24  25 0
 3-21G
 ****
 27  28  29  34  36  39  40  41  42  43  44  45  46 0
 3-21G
 ****


