%nproc=1
%NoSave
%Mem=1900MB
#P OB98/GEN NMR

erre ene a

0 1
  C      672.518    -898.990     124.598
  O      672.714    -898.070     125.663
  H      672.070    -898.450     123.773
  H      671.838    -899.790     124.921
  H      673.489    -899.420     124.282
  P      673.520    -898.550     126.968
  C      674.704    -897.400     128.962
  O      674.087    -897.230     127.690
  C      674.914    -896.050     129.634
  O      675.714    -895.170     128.767
  C      673.617    -895.270     129.848
  O      672.909    -895.780     130.982
  C      674.156    -893.850     130.047
  O      674.636    -893.650     131.372
  C      675.305    -893.820     129.006
  N      674.944    -893.140     127.749
  C      675.257    -891.810     127.646
  O      675.834    -891.180     128.548
  N      674.911    -891.200     126.472
  C      674.174    -891.770     125.458
  O      673.816    -891.150     124.457
  C      673.823    -893.190     125.658
  C      674.209    -893.790     126.760
  O      674.527    -899.640     126.752
  O      672.353    -899.010     127.967
  H      675.432    -894.210     131.471
  H      672.328    -900.000     127.986
  H      675.122    -890.240     126.373
  H      673.241    -893.680     124.870
  H      673.971    -894.850     126.917
  H      676.180    -893.300     129.429
  H      673.399    -893.100     129.873
  H      672.992    -895.290     128.955
  H      675.458    -896.180     130.569
  H      675.688    -897.890     128.802
  H      674.064    -898.050     129.590
  P      671.638    -894.990     131.522
  C      669.239    -895.630     132.268
  O      670.586    -896.080     132.085
  O      671.051    -893.980     130.591
  O      672.169    -894.270     132.871
  H      672.082    -893.320     132.792
  H      668.642    -896.435     132.642
  H      668.844    -895.298     131.331
  H      669.225    -894.821     132.968

 6  7  8  9  10  11  12  13  14  15  16  26  31  32  33  34  35 0
 6-311+G(2d,p)
 ****
 36  37 0
 6-311+G(2d,p)
 ****
 1  2  3  4  5  17  18  19  20  21  22  23  24  25 0
 3-21G
 ****
 27  28  29  30  38  39  40  41  42  43  44  45 0
 3-21G
 ****


