%nproc=1
%NoSave
%Mem=1900MB
#P OB98/GEN NMR

erre ene a

0 1
  C      380.660     188.334    -190.032
  O      381.393     187.119    -189.980
  P      382.973     187.127    -189.734
  C      382.641     186.833    -187.143
  O      383.268     186.413    -188.339
  C      382.724     185.702    -186.106
  O      381.855     184.618    -186.499
  C      384.145     185.148    -185.993
  O      384.840     185.785    -184.929
  C      383.901     183.670    -185.767
  O      383.592     183.408    -184.381
  C      382.658     183.413    -186.649
  N      382.862     183.185    -188.093
  C      383.459     182.005    -188.529
  O      383.790     181.088    -187.771
  N      383.663     181.900    -189.885
  C      383.305     182.831    -190.819
  O      383.706     182.843    -191.975
  C      382.455     183.923    -190.328
  C      382.288     184.057    -189.013
  O      383.282     188.663    -189.434
  O      383.809     186.598    -190.857
  H      384.376     183.644    -183.867
  H      383.627     189.117    -190.239
  H      384.220     181.104    -190.190
  H      382.027     184.606    -191.057
  H      381.693     184.889    -188.624
  H      382.063     182.569    -186.274
  H      384.801     183.087    -185.994
  H      384.683     185.272    -186.941
  H      382.378     186.085    -185.139
  H      381.600     187.103    -187.337
  H      383.139     187.733    -186.758
  P      386.425     185.970    -185.028
  C      386.381     188.451    -185.687
  O      386.687     187.510    -184.664
  O      387.068     185.480    -186.295
  O      386.968     185.171    -183.747
  H      387.260     184.270    -184.008
  H      386.428     189.459    -185.259
  H      385.375     188.271    -186.072
  H      387.111     188.364    -186.492
  H      379.626     188.120    -190.204
  H      381.035     188.943    -190.828
  H      380.767     188.855    -189.104

 3  4  5  6  7  8  9  10  11  12  13  23  28  29  30  31  32 0
 6-311+G(2d,p)
 ****
 33  34 0
 6-311+G(2d,p)
 ****
 1  2  14  15  16  17  18  19  20  21  22  24  25  26  27 0
 3-21G
 ****
 35  36  37  38  39  40  41  42  43  44  45 0
 3-21G
 ****


