%nproc=1
%NoSave
%Mem=1900MB
#P OB98/GEN NMR

erre ene a

0 1
  C      946.766     425.097     482.679
  O      946.703     423.890     481.942
  H      947.724     425.169     483.207
  H      946.676     425.932     481.987
  H      945.946     425.148     483.396
  P      946.920     422.533     482.775
  C      949.413     422.987     483.320
  O      948.473     422.168     482.647
  C      950.836     422.504     483.053
  O      950.997     421.150     483.508
  C      951.230     422.487     481.582
  O      951.560     423.794     481.105
  C      952.440     421.568     481.624
  O      953.595     422.320     482.056
  C      952.044     420.544     482.691
  N      953.215     416.389     479.912
  C      953.950     417.474     480.282
  N      953.568     418.535     481.005
  C      952.290     418.423     481.392
  C      951.415     417.393     481.092
  C      951.917     416.335     480.310
  N      951.168     415.246     479.918
  N      950.182     417.609     481.664
  C      950.300     418.760     482.291
  N      951.551     419.302     482.154
  O      946.195     421.426     481.876
  O      946.381     422.549     484.167
  H      953.692     423.066     481.433
  H      945.778     420.762     482.459
  H      954.980     417.465     479.945
  H      949.507     419.236     482.870
  H      952.876     420.329     483.376
  H      952.687     421.128     480.653
  H      950.441     422.027     480.957
  H      951.520     423.140     483.637
  H      949.218     422.952     484.400
  H      951.636     414.440     479.533
  H      950.203     415.205     480.239
  H      949.285     424.024     482.986
  P      951.078     424.202     479.634
  C      952.832     422.956     478.174
  O      952.398     424.197     478.721
  O      950.721     425.745     479.787
  O      949.915     423.420     479.109
  H      950.062     426.015     479.100
  H      953.717     423.112     477.594
  H      952.062     422.553     477.549
  H      953.043     422.270     478.968

 6  7  8  9  10  11  12  13  14  15  25  28  32  33  34  35 0
 6-311+G(2d,p)
 ****
 36  39  40 0
 6-311+G(2d,p)
 ****
 1  2  3  4  5  16  17  18  19  20  21  22  23  24 0
 3-21G
 ****
 26  27  29  30  31  37  38  41  42  43  44  45  46  47  48 0
 3-21G
 ****


