%nproc=1
%NoSave
%Mem=1900MB
#P OB98/GEN NMR

erre ene a

0 1
  C     -711.175    -240.072     790.713
  O     -710.271    -241.149     790.569
  H     -711.633    -239.865     789.739
  H     -710.643    -239.177     791.054
  H     -711.973    -240.315     791.427
  P     -709.715    -241.862     791.895
  C     -709.791    -243.982     790.403
  O     -709.102    -243.275     791.433
  C     -708.907    -245.105     789.829
  O     -707.684    -244.517     789.294
  C     -708.484    -246.094     790.925
  O     -708.238    -247.405     790.415
  C     -707.159    -245.497     791.415
  O     -706.313    -246.470     792.042
  C     -706.587    -244.937     790.114
  N     -701.869    -243.438     791.345
  C     -702.423    -244.684     791.431
  N     -701.622    -245.684     791.908
  N     -703.675    -244.957     791.106
  C     -704.368    -243.846     790.713
  C     -703.928    -242.565     790.598
  C     -702.536    -242.284     790.925
  O     -701.994    -241.190     790.889
  N     -704.930    -241.721     790.171
  C     -705.981    -242.489     790.036
  N     -705.680    -243.815     790.327
  O     -711.047    -242.304     792.676
  O     -708.816    -241.032     792.757
  H     -706.038    -247.114     791.349
  H     -710.849    -242.432     793.613
  H     -700.901    -243.294     791.569
  H     -706.961    -242.181     789.719
  H     -706.034    -245.701     789.567
  H     -707.385    -244.736     792.158
  H     -700.745    -245.483     792.354
  H     -709.200    -246.161     791.743
  H     -702.104    -246.503     792.278
  H     -709.420    -245.598     789.006
  H     -710.032    -243.252     789.626
  H     -710.724    -244.389     790.782
  P     -709.258    -248.571     790.808
  C     -708.418    -250.050     788.749
  O     -708.796    -249.949     790.119
  O     -710.599    -248.191     790.046
  O     -709.466    -248.719     792.280
  H     -711.306    -247.983     790.677
  H     -708.152    -251.062     788.526
  H     -707.580    -249.412     788.562
  H     -709.238    -249.752     788.130

 6  7  8  9  10  11  12  13  14  15  26  29  33  34 0
 6-311+G(2d,p)
 ****
 36  38  39  40  41 0
 6-311+G(2d,p)
 ****
 1  2  3  4  5  16  17  18  19  20  21  22  23  24  25 0
 3-21G
 ****
 27  28  30  31  32  35  37  42  43  44  45  46  47 0
 3-21G
 ****
 48  49 0
 3-21G
 ****


