%nproc=1
%NoSave
%Mem=1900MB
#P OB98/GEN NMR

erre ene a

0 1
  C     -263.509    -327.206     315.442
  O     -263.777    -328.248     314.497
  P     -263.015    -328.337     313.094
  C     -261.856    -330.633     313.159
  O     -261.691    -329.220     313.263
  C     -261.730    -331.330     314.529
  O     -262.774    -330.882     315.418
  C     -261.831    -332.848     314.473
  O     -260.612    -333.421     314.045
  C     -262.219    -333.162     315.925
  O     -261.052    -333.172     316.762
  C     -263.136    -331.987     316.272
  N     -267.259    -333.858     318.638
  C     -266.002    -333.634     319.065
  N     -264.947    -333.145     318.367
  C     -265.317    -332.832     317.119
  C     -266.573    -332.995     316.535
  C     -267.580    -333.546     317.362
  N     -268.867    -333.772     316.918
  N     -266.558    -332.602     315.224
  C     -265.332    -332.174     315.003
  N     -264.551    -332.291     316.127
  O     -262.789    -327.026     312.428
  O     -263.963    -329.259     312.172
  H     -260.404    -333.791     316.377
  H     -263.846    -329.026     311.235
  H     -265.809    -333.897     320.092
  H     -264.964    -331.763     314.078
  H     -262.981    -331.652     317.302
  H     -262.689    -334.149     316.022
  H     -262.641    -333.149     313.819
  H     -260.765    -331.021     314.961
  H     -261.084    -331.025     312.483
  H     -269.516    -334.201     317.557
  H     -269.091    -333.586     315.947
  H     -262.851    -330.837     312.723
  P     -260.433    -333.873     312.514
  C     -258.009    -333.198     311.994
  O     -259.366    -332.860     311.846
  O     -261.703    -334.060     311.750
  O     -259.590    -335.219     312.621
  H     -259.809    -335.806     311.859
  H     -257.664    -332.892     312.996
  H     -257.428    -332.657     311.249
  H     -257.851    -334.276     311.863
  H     -264.127    -327.339     316.305
  H     -263.720    -326.257     314.996
  H     -262.480    -327.243     315.732

 3  4  5  6  7  8  9  10  11  12  22  25  29  30  31  32 0
 6-311+G(2d,p)
 ****
 33  36  37 0
 6-311+G(2d,p)
 ****
 1  2  13  14  15  16  17  18  19  20  21  23  24  26 0
 3-21G
 ****
 27  28  34  35  38  39  40  41  42  43  44  45  46  47  48 0
 3-21G
 ****


