%nproc=1
%NoSave
%Mem=1900MB
#P OB98/GEN NMR

erre ene a

0 1
  C      684.393    -892.380     432.808
  O      683.912    -893.210     433.849
  H      685.245    -892.870     432.337
  H      684.721    -891.420     433.217
  H      683.614    -892.220     432.061
  P      682.557    -892.790     434.611
  C      681.405    -895.050     434.136
  O      681.377    -893.640     433.943
  C      680.300    -895.470     435.090
  O      679.017    -895.060     434.579
  C      680.196    -896.990     435.277
  O      681.213    -897.460     436.142
  C      678.779    -897.110     435.834
  O      678.757    -896.820     437.250
  C      678.023    -896.040     435.021
  N      677.283    -896.590     433.902
  C      676.118    -897.280     434.230
  O      675.715    -897.460     435.375
  N      675.411    -897.780     433.151
  C      675.820    -897.760     431.858
  O      675.196    -898.310     430.943
  C      677.066    -897.050     431.572
  C      677.737    -896.490     432.592
  O      682.310    -891.320     434.727
  O      682.728    -893.470     436.061
  H      679.441    -897.380     437.654
  H      682.940    -892.780     436.715
  H      674.567    -898.300     433.374
  H      677.409    -897.000     430.542
  H      678.665    -895.970     432.427
  H      677.335    -895.500     435.671
  H      678.379    -898.120     435.715
  H      680.239    -897.490     434.320
  H      680.457    -894.960     436.059
  H      682.384    -895.320     434.555
  H      681.295    -895.540     433.147
  P      681.708    -898.980     436.036
  C      684.123    -898.500     435.283
  O      682.864    -899.050     434.914
  O      680.622    -900.000     435.878
  O      682.524    -899.230     437.382
  H      682.103    -899.950     437.908
  H      684.809    -898.600     434.468
  H      684.504    -899.022     436.136
  H      684.003    -897.464     435.523

 6  7  8  9  10  11  12  13  14  15  16  26  31  32  33  34  35 0
 6-311+G(2d,p)
 ****
 36  37 0
 6-311+G(2d,p)
 ****
 1  2  3  4  5  17  18  19  20  21  22  23  24  25 0
 3-21G
 ****
 27  28  29  30  38  39  40  41  42  43  44  45 0
 3-21G
 ****


