%nproc=1
%NoSave
%Mem=1900MB
#P OB98/GEN NMR

erre ene a

0 1
  C     -247.766    -152.875     -81.574
  O     -246.436    -152.558     -81.928
  H     -248.040    -152.292     -80.689
  H     -247.839    -153.939     -81.331
  H     -248.460    -152.634     -82.382
  P     -245.886    -153.014     -83.362
  C     -243.688    -152.686     -84.674
  O     -244.324    -152.660     -83.405
  C     -242.205    -152.306     -84.555
  O     -242.104    -150.870     -84.367
  C     -241.552    -152.960     -83.331
  O     -240.155    -153.171     -83.510
  C     -241.763    -151.916     -82.237
  O     -240.835    -152.036     -81.167
  C     -241.629    -150.619     -83.037
  N     -241.792    -147.119     -79.328
  C     -240.962    -148.217     -79.455
  N     -240.055    -148.404     -78.470
  N     -241.029    -149.064     -80.450
  C     -242.030    -148.794     -81.321
  C     -242.932    -147.756     -81.289
  C     -242.826    -146.799     -80.205
  O     -243.550    -145.828     -80.031
  N     -243.807    -147.818     -82.349
  C     -243.446    -148.887     -83.014
  N     -242.356    -149.509     -82.448
  O     -246.514    -151.933     -84.368
  O     -246.236    -154.414     -83.772
  H     -240.947    -152.922     -80.777
  H     -246.548    -152.294     -85.273
  H     -241.681    -146.479     -78.557
  H     -243.920    -149.256     -83.913
  H     -240.566    -150.324     -83.109
  H     -242.766    -152.054     -81.819
  H     -240.104    -147.890     -77.597
  H     -242.024    -153.905     -83.054
  H     -239.661    -149.346     -78.385
  H     -241.678    -152.544     -85.487
  H     -244.219    -151.976     -85.317
  H     -243.796    -153.670     -85.133
  P     -239.643    -154.634     -83.915
  C     -237.236    -155.705     -84.157
  O     -238.107    -154.806     -83.512
  O     -239.623    -154.601     -85.513
  O     -240.496    -155.753     -83.386
  H     -240.268    -155.236     -85.874
  H     -236.264    -155.641     -83.713
  H     -237.171    -155.456     -85.196
  H     -237.611    -156.702     -84.052

 6  7  8  9  10  11  12  13  14  15  26  29  33  34 0
 6-311+G(2d,p)
 ****
 36  38  39  40  41 0
 6-311+G(2d,p)
 ****
 1  2  3  4  5  16  17  18  19  20  21  22  23  24  25 0
 3-21G
 ****
 27  28  30  31  32  35  37  42  43  44  45  46  47 0
 3-21G
 ****
 48  49 0
 3-21G
 ****


