%nproc=1
%NoSave
%Mem=1900MB
#P OB98/GEN NMR

erre ene a

0 1
  C      232.889    -551.843     371.212
  O      233.954    -552.757     371.017
  H      232.626    -551.405     370.244
  H      233.197    -551.040     371.884
  H      232.010    -552.354     371.614
  P      234.434    -553.658     372.253
  C      234.770    -555.884     370.993
  O      235.403    -554.793     371.661
  C      235.833    -556.724     370.276
  O      236.455    -555.952     369.222
  C      236.973    -557.184     371.180
  O      236.565    -558.263     372.005
  C      238.035    -557.538     370.150
  O      237.792    -558.843     369.588
  C      237.824    -556.430     369.089
  N      238.771    -555.335     369.211
  C      240.004    -555.504     368.558
  O      240.304    -556.526     367.942
  N      240.887    -554.468     368.678
  C      240.712    -553.353     369.451
  O      241.575    -552.489     369.597
  C      239.424    -553.238     370.131
  C      238.518    -554.217     369.981
  O      233.355    -554.155     373.150
  O      235.454    -552.698     373.039
  H      237.698    -559.452     370.348
  H      235.025    -552.363     373.849
  H      241.781    -554.578     368.227
  H      239.243    -552.355     370.739
  H      237.565    -554.150     370.481
  H      237.900    -556.854     368.078
  H      239.032    -557.542     370.572
  H      237.326    -556.345     371.786
  H      235.329    -557.589     369.814
  H      234.065    -555.483     370.250
  H      234.229    -556.485     371.723
  P      237.341    -558.554     373.378
  C      235.412    -559.471     374.820
  O      236.611    -559.781     374.102
  O      237.579    -557.357     374.243
  O      238.726    -559.197     372.894
  H      239.467    -558.636     373.199
  H      235.017    -560.364     375.258
  H      234.691    -559.055     374.148
  H      235.631    -558.762     375.591

 6  7  8  9  10  11  12  13  14  15  16  26  31  32  33  34  35 0
 6-311+G(2d,p)
 ****
 36  37 0
 6-311+G(2d,p)
 ****
 1  2  3  4  5  17  18  19  20  21  22  23  24  25 0
 3-21G
 ****
 27  28  29  30  38  39  40  41  42  43  44  45 0
 3-21G
 ****


