%nproc=1
%NoSave
%Mem=1900MB
#P OB98/GEN NMR

erre ene a

0 1
  C     -136.970    -124.822    -257.761
  O     -136.513    -125.139    -259.061
  P     -136.187    -126.665    -259.460
  C     -134.557    -125.593    -261.154
  O     -135.533    -126.616    -260.928
  C     -133.609    -126.020    -262.271
  O     -132.918    -127.244    -261.932
  C     -134.300    -126.325    -263.593
  O     -134.930    -125.259    -264.263
  C     -133.209    -127.059    -264.343
  O     -132.272    -126.144    -264.921
  C     -132.523    -127.853    -263.199
  N     -132.874    -129.276    -263.231
  C     -132.246    -130.035    -264.206
  O     -131.424    -129.578    -265.009
  N     -132.598    -131.363    -264.254
  C     -133.538    -131.973    -263.480
  O     -133.838    -133.162    -263.617
  C     -134.185    -131.112    -262.475
  C     -133.830    -129.830    -262.393
  O     -137.333    -127.621    -259.311
  O     -134.930    -127.033    -258.540
  H     -131.648    -126.672    -265.462
  H     -134.136    -126.464    -258.674
  H     -132.153    -131.924    -264.971
  H     -134.930    -131.578    -261.823
  H     -134.298    -129.165    -261.651
  H     -131.431    -127.772    -263.254
  H     -133.591    -127.679    -265.149
  H     -135.099    -127.055    -263.394
  H     -132.852    -125.243    -262.385
  H     -133.994    -125.448    -260.237
  H     -135.057    -124.647    -261.386
  P     -136.494    -124.902    -264.065
  C     -137.193    -124.163    -266.455
  O     -136.877    -123.773    -265.127
  O     -136.973    -124.714    -262.653
  O     -137.200    -126.194    -264.696
  H     -138.041    -126.348    -264.224
  H     -137.392    -123.272    -267.049
  H     -138.098    -124.780    -266.466
  H     -136.360    -124.691    -266.910
  H     -137.131    -123.767    -257.687
  H     -136.237    -125.122    -257.042
  H     -137.888    -125.337    -257.570

 3  4  5  6  7  8  9  10  11  12  13  23  28  29  30  31  32 0
 6-311+G(2d,p)
 ****
 33  34 0
 6-311+G(2d,p)
 ****
 1  2  14  15  16  17  18  19  20  21  22  24  25  26  27 0
 3-21G
 ****
 35  36  37  38  39  40  41  42  43  44  45 0
 3-21G
 ****


