%nproc=1
%NoSave
%Mem=1900MB
#P OB98/GEN NMR

erre ene a

0 1
  C      132.667    -250.558     179.618
  O      133.046    -250.830     178.257
  P      133.127    -252.359     177.759
  C      131.384    -254.313     177.878
  O      131.633    -252.933     177.634
  C      129.886    -254.606     177.781
  O      129.156    -253.851     178.773
  C      129.256    -254.221     176.447
  O      129.560    -255.162     175.430
  C      127.775    -254.183     176.816
  O      127.204    -255.501     176.789
  C      127.820    -253.640     178.257
  N      127.433    -252.233     178.345
  C      126.139    -251.975     178.791
  O      125.327    -252.857     179.055
  N      125.799    -250.651     178.899
  C      126.584    -249.590     178.538
  O      126.212    -248.425     178.637
  C      127.906    -249.928     177.998
  C      128.261    -251.211     177.919
  O      133.658    -253.110     179.072
  O      134.029    -252.617     176.600
  H      126.303    -255.424     177.159
  H      134.156    -253.909     178.813
  H      124.880    -250.441     179.249
  H      128.549    -249.116     177.680
  H      129.239    -251.483     177.520
  H      127.153    -254.225     178.902
  H      127.189    -253.564     176.127
  H      129.583    -253.215     176.158
  H      129.733    -255.677     177.986
  H      131.736    -254.567     178.883
  H      131.945    -254.912     177.150
  P      130.533    -254.663     174.254
  C      133.129    -254.367     174.089
  O      132.014    -254.732     174.872
  O      130.171    -253.103     174.206
  O      130.320    -255.387     172.965
  H      129.953    -252.750     175.089
  H      132.885    -253.567     173.382
  H      133.480    -255.246     173.536
  H      133.928    -254.019     174.748
  H      132.663    -249.501     179.782
  H      133.368    -251.019     180.282
  H      131.689    -250.952     179.801

 3  4  5  6  7  8  9  10  11  12  13  23  28  29  30  31  32 0
 6-311+G(2d,p)
 ****
 33  34 0
 6-311+G(2d,p)
 ****
 1  2  14  15  16  17  18  19  20  21  22  24  25  26 0
 3-21G
 ****
 27  35  36  37  38  39  40  41  42  43  44  45 0
 3-21G
 ****


