%nproc=1
%NoSave
%Mem=1900MB
#P OB98/GEN NMR

erre ene a

0 1
  C     -422.523     867.961      41.750
  O     -421.672     868.448      40.723
  H     -422.519     868.680      42.566
  H     -422.145     867.012      42.121
  H     -423.548     867.848      41.379
  P     -421.635     867.642      39.345
  C     -422.607     869.646      37.997
  O     -421.519     868.739      38.168
  C     -422.086     870.990      37.486
  O     -421.682     871.806      38.614
  C     -420.892     870.876      36.537
  O     -421.008     871.861      35.497
  C     -419.694     871.229      37.437
  O     -418.579     871.728      36.690
  C     -420.324     872.244      38.411
  N     -419.580     872.309      39.661
  C     -418.210     872.635      39.548
  O     -417.702     872.841      38.439
  N     -417.442     872.673      40.687
  C     -417.969     872.316      41.824
  N     -417.140     872.348      42.916
  C     -419.376     871.903      41.974
  C     -420.118     871.932      40.855
  O     -423.128     867.097      39.198
  O     -420.618     866.547      39.272
  H     -418.331     871.049      36.027
  H     -423.160     866.239      38.728
  H     -419.758     871.597      42.938
  H     -421.165     871.634      40.873
  H     -420.353     873.237      37.947
  H     -419.369     870.338      37.974
  H     -420.774     869.877      36.097
  H     -422.912     871.520      36.979
  H     -416.171     872.620      42.763
  H     -423.089     869.800      38.958
  H     -417.421     872.055      43.831
  H     -423.317     869.225      37.283
  P     -419.968     871.753      34.287
  C     -421.687     871.315      32.373
  O     -420.721     872.211      32.952
  O     -419.775     870.171      34.101
  O     -418.666     872.453      34.547
  H     -418.880     869.912      34.409
  H     -422.102     871.758      31.492
  H     -422.468     871.128      33.080
  H     -421.209     870.392      32.117

 6  7  8  9  10  11  12  13  14  15  16  26  30  31  32  33  35 0
 6-311+G(2d,p)
 ****
 37  38 0
 6-311+G(2d,p)
 ****
 1  2  3  4  5  17  18  19  20  21  22  23  24  25 0
 3-21G
 ****
 27  28  29  34  36  39  40  41  42  43  44  45  46 0
 3-21G
 ****


