%nproc=1
%NoSave
%Mem=1900MB
#P OB98/GEN NMR

erre ene a

0 1
  C     -209.417     145.197     -84.412
  O     -208.393     146.176     -84.342
  P     -207.793     146.730     -85.723
  C     -205.568     145.369     -85.384
  O     -206.702     145.651     -86.189
  C     -204.304     145.340     -86.248
  O     -204.476     144.402     -87.337
  C     -203.952     146.662     -86.910
  O     -203.354     147.568     -85.993
  C     -203.036     146.201     -88.034
  O     -201.713     145.957     -87.531
  C     -203.698     144.872     -88.455
  N     -204.519     144.992     -89.658
  C     -203.866     144.796     -90.872
  O     -202.667     144.533     -90.956
  N     -204.641     144.933     -91.993
  C     -205.955     145.300     -92.025
  O     -206.587     145.451     -93.062
  C     -206.582     145.526     -90.715
  C     -205.849     145.365     -89.611
  O     -206.939     147.975     -85.195
  O     -208.845     147.060     -86.728
  H     -206.644     147.848     -84.278
  H     -201.196     145.594     -88.277
  H     -204.194     144.773     -92.887
  H     -207.621     145.828     -90.698
  H     -206.292     145.535     -88.636
  H     -202.932     144.108     -88.637
  H     -202.950     146.938     -88.842
  H     -204.856     147.117     -87.336
  H     -203.470     144.985     -85.627
  H     -205.705     144.400     -84.901
  H     -205.479     146.136     -84.608
  P     -203.379     149.125     -86.403
  C     -200.908     149.053     -87.249
  O     -202.264     149.308     -87.537
  O     -202.735     149.797     -85.099
  O     -204.741     149.633     -86.751
  H     -201.975     149.300     -84.755
  H     -200.377     148.882     -88.187
  H     -200.793     148.173     -86.613
  H     -200.472     149.923     -86.749
  H     -209.717     144.924     -83.422
  H     -209.050     144.333     -84.925
  H     -210.256     145.596     -84.942

 3  4  5  6  7  8  9  10  11  12  13  24  28  29  30  31  32 0
 6-311+G(2d,p)
 ****
 33  34 0
 6-311+G(2d,p)
 ****
 1  2  14  15  16  17  18  19  20  21  22  23  25  26  27 0
 3-21G
 ****
 35  36  37  38  39  40  41  42  43  44  45 0
 3-21G
 ****


