%nproc=1
%NoSave
%Mem=1900MB
#P OB98/GEN NMR

erre ene a

0 1
  C       15.164     -72.973    -134.268
  O       15.541     -71.670    -134.665
  H       14.277     -73.268    -134.833
  H       14.921     -72.980    -133.203
  H       15.968     -73.683    -134.472
  P       16.883     -71.074    -134.017
  C       18.485     -71.681    -135.963
  O       17.828     -70.647    -135.246
  C       19.996     -71.608    -135.754
  O       20.600     -72.844    -136.241
  C       20.681     -70.444    -136.487
  O       21.763     -69.981    -135.669
  C       21.271     -71.117    -137.715
  O       22.344     -70.373    -138.286
  C       21.678     -72.462    -137.116
  N       24.522     -73.561    -141.118
  C       24.564     -72.481    -140.257
  N       25.510     -71.547    -140.497
  N       23.750     -72.330    -139.248
  C       22.876     -73.356    -139.105
  C       22.729     -74.475    -139.889
  C       23.622     -74.618    -141.021
  O       23.621     -75.541    -141.829
  N       21.707     -75.269    -139.430
  C       21.240     -74.631    -138.372
  N       21.916     -73.466    -138.135
  O       17.596     -72.380    -133.428
  O       16.680     -70.028    -132.973
  H       22.580     -70.791    -139.139
  H       17.356     -72.502    -132.490
  H       25.165     -73.622    -141.888
  H       20.419     -74.964    -137.752
  H       22.596     -72.392    -136.519
  H       20.498     -71.248    -138.483
  H       26.200     -71.620    -141.227
  H       20.016     -69.610    -136.731
  H       25.583     -70.770    -139.852
  H       20.197     -71.564    -134.677
  H       18.265     -71.567    -137.030
  H       18.107     -72.651    -135.624
  P       21.973     -68.400    -135.523
  C       20.094     -67.564    -133.931
  O       21.449     -67.960    -134.073
  O       20.853     -67.800    -136.498
  O       23.338     -67.924    -135.893
  H       21.137     -66.930    -136.835
  H       19.904     -67.303    -132.911
  H       19.454     -68.372    -134.217
  H       19.902     -66.718    -134.558

 6  7  8  9  10  11  12  13  14  15  26  29  33  34 0
 6-311+G(2d,p)
 ****
 36  38  39  40  41 0
 6-311+G(2d,p)
 ****
 1  2  3  4  5  16  17  18  19  20  21  22  23  24  25 0
 3-21G
 ****
 27  28  30  31  32  35  37  42  43  44  45  46  47 0
 3-21G
 ****
 48  49 0
 3-21G
 ****


