%nproc=1
%NoSave
%Mem=1900MB
#P OB98/GEN NMR

erre ene a

0 1
  C      133.342    -677.453      47.174
  O      132.068    -677.299      46.582
  H      133.830    -676.482      47.274
  H      133.214    -677.882      48.176
  H      133.958    -678.127      46.577
  P      132.044    -676.658      45.106
  C      130.095    -678.253      44.488
  O      130.571    -676.920      44.505
  C      128.691    -678.312      43.916
  O      127.763    -677.810      44.924
  C      128.489    -677.480      42.631
  O      127.866    -678.266      41.605
  C      127.537    -676.364      43.055
  O      126.654    -675.976      42.013
  C      126.807    -676.984      44.226
  N      122.891    -673.792      44.945
  C      123.008    -674.913      44.215
  N      124.040    -675.777      44.129
  C      125.021    -675.393      44.962
  C      125.061    -674.286      45.792
  C      123.930    -673.441      45.746
  N      123.860    -672.266      46.460
  N      126.260    -674.208      46.485
  C      126.956    -675.230      46.053
  N      126.266    -675.975      45.120
  O      132.976    -677.659      44.264
  O      132.535    -675.258      45.031
  H      127.196    -675.645      41.267
  H      133.739    -677.153      43.915
  H      122.150    -675.159      43.581
  H      127.975    -675.474      46.336
  H      125.989    -677.636      43.902
  H      128.120    -675.484      43.363
  H      129.442    -677.071      42.253
  H      128.418    -679.359      43.732
  H      130.085    -678.649      45.515
  H      123.053    -671.665      46.280
  H      124.653    -671.935      46.968
  H      130.780    -678.869      43.886
  P      128.625    -678.322      40.191
  C      127.490    -680.563      39.510
  O      127.720    -679.184      39.193
  O      129.883    -679.261      40.503
  O      129.059    -676.974      39.674
  H      130.720    -678.795      40.268
  H      126.872    -681.004      38.756
  H      127.001    -680.634      40.459
  H      128.426    -681.080      39.552

 6  7  8  9  10  11  12  13  14  15  25  28  32  33  34  35 0
 6-311+G(2d,p)
 ****
 36  39  40 0
 6-311+G(2d,p)
 ****
 1  2  3  4  5  16  17  18  19  20  21  22  23  24 0
 3-21G
 ****
 26  27  29  30  31  37  38  41  42  43  44  45  46  47  48 0
 3-21G
 ****


