%nproc=1
%NoSave
%Mem=1900MB
#P OB98/GEN NMR

erre ene a

0 1
  C        2.932      75.363     191.422
  O        4.300      75.256     191.084
  H        2.586      76.370     191.177
  H        2.800      75.199     192.494
  H        2.337      74.637     190.858
  P        4.960      73.797     191.140
  C        6.057      72.342     192.994
  O        5.355      73.533     192.675
  C        6.057      72.125     194.508
  O        6.783      73.220     195.133
  C        4.655      72.087     195.131
  O        4.661      71.135     196.201
  C        4.499      73.482     195.708
  O        3.550      73.568     196.762
  C        5.934      73.769     196.162
  N        6.190      75.195     196.349
  C        6.683      75.598     197.587
  O        6.999      74.837     198.499
  N        6.813      76.953     197.757
  C        6.483      77.915     196.847
  O        6.602      79.114     197.069
  C        5.958      77.428     195.564
  C        5.835      76.112     195.380
  O        6.375      74.015     190.425
  O        4.162      72.706     190.508
  H        6.299      73.864     189.465
  H        3.644      74.453     197.169
  H        7.168      77.262     198.647
  H        5.675      78.162     194.823
  H        5.432      75.719     194.452
  H        6.155      73.229     197.090
  H        4.192      74.180     194.920
  H        3.855      71.842     194.424
  H        6.609      71.204     194.731
  H        7.092      72.426     192.647
  H        5.582      71.496     192.487
  P        3.573      69.956     196.145
  C        0.955      70.000     196.257
  O        2.187      70.630     196.585
  O        4.008      69.076     197.406
  O        3.564      69.235     194.840
  H        4.342      69.611     198.146
  H        0.143      70.589     196.629
  H        0.922      69.027     196.702
  H        0.873      69.909     195.194

 6  7  8  9  10  11  12  13  14  15  16  27  31  32  33  34  35 0
 6-311+G(2d,p)
 ****
 36  37 0
 6-311+G(2d,p)
 ****
 1  2  3  4  5  17  18  19  20  21  22  23  24  25 0
 3-21G
 ****
 26  28  29  30  38  39  40  41  42  43  44  45 0
 3-21G
 ****


