%nproc=1
%NoSave
%Mem=1900MB
#P OB98/GEN NMR

erre ene a

0 1
  C      371.412    -527.974      92.969
  O      371.053    -527.798      91.616
  H      371.545    -526.990      93.425
  H      372.356    -528.522      93.032
  H      370.637    -528.514      93.518
  P      370.456    -529.043      90.808
  C      368.721    -527.512      89.666
  O      369.760    -528.461      89.484
  C      369.287    -526.106      89.896
  O      370.047    -525.691      88.734
  C      368.147    -525.095      90.071
  O      368.528    -523.992      90.889
  C      367.919    -524.602      88.648
  O      367.272    -523.334      88.597
  C      369.347    -524.603      88.105
  N      369.250    -522.256      83.581
  C      369.011    -521.737      84.843
  N      368.678    -520.431      84.899
  N      369.074    -522.447      85.940
  C      369.341    -523.760      85.725
  C      369.571    -524.391      84.521
  C      369.538    -523.587      83.320
  O      369.724    -523.995      82.175
  N      369.790    -525.736      84.697
  C      369.681    -525.917      85.997
  N      369.424    -524.744      86.666
  O      369.196    -529.497      91.690
  O      371.401    -530.184      90.574
  H      367.282    -523.036      87.668
  H      368.994    -530.437      91.533
  H      369.205    -521.661      82.772
  H      369.789    -526.867      86.508
  H      369.863    -523.673      88.373
  H      367.268    -525.319      88.140
  H      368.449    -519.896      84.077
  H      367.252    -525.553      90.484
  H      368.219    -520.113      85.757
  H      369.978    -526.112      90.743
  H      368.137    -527.830      90.538
  H      368.047    -527.521      88.804
  P      367.721    -523.772      92.255
  C      369.611    -522.230      93.221
  O      368.239    -522.410      92.917
  O      368.287    -524.917      93.217
  O      366.241    -523.854      92.096
  H      367.634    -525.632      93.312
  H      369.756    -521.263      93.654
  H      370.189    -522.309      92.324
  H      369.924    -522.982      93.915

 6  7  8  9  10  11  12  13  14  15  26  29  33  34 0
 6-311+G(2d,p)
 ****
 36  38  39  40  41 0
 6-311+G(2d,p)
 ****
 1  2  3  4  5  16  17  18  19  20  21  22  23  24  25 0
 3-21G
 ****
 27  28  30  31  32  35  37  42  43  44  45  46  47 0
 3-21G
 ****
 48  49 0
 3-21G
 ****


