%nproc=1
%NoSave
%Mem=1900MB
#P OB98/GEN NMR

erre ene a

0 1
  C     -263.807       6.023     322.319
  O     -262.702       6.133     321.442
  P     -261.232       6.430     322.013
  C     -261.396       8.832     321.072
  O     -261.176       8.023     322.230
  C     -261.642      10.286     321.461
  O     -262.920      10.422     322.131
  C     -260.612      10.860     322.420
  O     -259.419      11.181     321.733
  C     -261.365      12.060     322.984
  O     -261.280      13.186     322.096
  C     -262.814      11.526     323.047
  N     -263.198      11.143     324.405
  C     -263.273      12.183     325.338
  O     -262.984      13.332     325.009
  N     -263.618      11.884     326.636
  C     -263.852      10.650     326.968
  N     -264.182      10.418     328.270
  C     -263.760       9.524     326.025
  C     -263.431       9.839     324.769
  O     -260.107       5.850     321.223
  O     -261.309       5.869     323.517
  H     -261.701      13.937     322.565
  H     -261.292       4.885     323.536
  H     -263.951       8.511     326.353
  H     -263.334       9.073     324.011
  H     -263.518      12.291     322.694
  H     -260.967      12.380     323.952
  H     -260.415      10.140     323.224
  H     -261.674      10.885     320.536
  H     -264.202      11.213     328.892
  H     -262.272       8.439     320.542
  H     -264.348       9.495     328.644
  H     -260.531       8.749     320.407
  P     -258.008      11.026     322.470
  C     -258.235      13.357     323.521
  O     -258.019      11.972     323.761
  O     -256.805      11.163     321.592
  O     -258.079       9.555     323.112
  H     -257.226       9.097     322.954
  H     -258.550      13.830     324.453
  H     -259.013      13.507     322.763
  H     -257.308      13.820     323.187
  H     -264.693       5.825     321.753
  H     -263.926       6.939     322.859
  H     -263.637       5.222     323.008

 3  4  5  6  7  8  9  10  11  12  13  23  27  28  29  30  32 0
 6-311+G(2d,p)
 ****
 34  35 0
 6-311+G(2d,p)
 ****
 1  2  14  15  16  17  18  19  20  21  22  24  25  26 0
 3-21G
 ****
 31  33  36  37  38  39  40  41  42  43  44  45  46 0
 3-21G
 ****


