%nproc=1
%NoSave
%Mem=1900MB
#P OB98/GEN NMR

erre ene a

0 1
  C       29.185       6.998    -147.994
  O       29.570       8.024    -148.882
  H       29.554       7.248    -146.994
  H       29.628       6.046    -148.294
  H       28.096       6.912    -147.953
  P       29.195       7.896    -150.438
  C       31.452       6.824    -151.027
  O       30.045       6.636    -150.977
  C       32.119       5.754    -151.895
  O       31.481       5.723    -153.202
  C       33.620       5.986    -152.119
  O       34.336       4.767    -151.899
  C       33.708       6.371    -153.588
  O       34.986       6.105    -154.159
  C       32.537       5.570    -154.165
  N       32.154       6.038    -155.493
  C       33.050       5.751    -156.528
  O       34.090       5.131    -156.300
  N       32.773       6.221    -157.786
  C       31.720       6.952    -157.982
  N       31.523       7.408    -159.251
  C       30.766       7.302    -156.914
  C       31.039       6.813    -155.703
  O       29.364       9.154    -151.224
  O       27.695       7.343    -150.455
  H       35.242       5.183    -153.935
  H       27.281       7.569    -151.320
  H       29.907       7.919    -157.132
  H       30.395       7.017    -154.854
  H       32.789       4.502    -154.230
  H       33.509       7.447    -153.691
  H       34.036       6.761    -151.477
  H       31.931       4.772    -151.442
  H       32.207       7.149    -159.954
  H       31.847       6.787    -150.005
  H       30.755       8.003    -159.518
  H       31.655       7.810    -151.457
  P       34.904       4.534    -150.417
  C       37.444       4.660    -150.941
  O       36.325       5.270    -150.311
  O       35.271       2.976    -150.403
  O       33.924       4.876    -149.343
  H       34.647       2.495    -149.827
  H       38.314       5.263    -150.785
  H       37.257       4.569    -151.991
  H       37.603       3.688    -150.522

 6  7  8  9  10  11  12  13  14  15  16  26  30  31  32  33  35 0
 6-311+G(2d,p)
 ****
 37  38 0
 6-311+G(2d,p)
 ****
 1  2  3  4  5  17  18  19  20  21  22  23  24  25 0
 3-21G
 ****
 27  28  29  34  36  39  40  41  42  43  44  45  46 0
 3-21G
 ****


