%nproc=1
%NoSave
%Mem=1900MB
#P OB98/GEN NMR

erre ene a

0 1
  C      -59.881      14.436      71.014
  O      -59.571      14.057      69.688
  H      -58.948      14.603      71.559
  H      -60.441      13.639      71.511
  H      -60.464      15.361      71.020
  P      -60.811      13.805      68.702
  C      -60.903      11.264      69.252
  O      -61.580      12.515      69.268
  C      -61.918      10.125      69.298
  O      -62.610      10.150      70.567
  C      -63.007      10.215      68.234
  O      -62.553       9.759      66.971
  C      -64.089       9.334      68.845
  O      -63.856       7.946      68.571
  C      -63.930       9.604      70.347
  N      -67.768      10.126      73.662
  C      -66.900       9.114      73.436
  N      -65.888       9.062      72.542
  C      -65.815      10.209      71.847
  C      -66.632      11.321      71.961
  C      -67.651      11.255      72.925
  N      -68.557      12.270      73.131
  N      -66.272      12.285      71.040
  C      -65.249      11.770      70.388
  N      -64.936      10.520      70.846
  O      -60.103      13.268      67.368
  O      -61.670      14.996      68.440
  H      -64.596       7.453      68.975
  H      -59.961      14.012      66.753
  H      -67.038       8.229      74.051
  H      -64.713      12.252      69.580
  H      -64.003       8.686      70.943
  H      -65.074       9.582      68.447
  H      -63.384      11.243      68.164
  H      -61.377       9.172      69.223
  H      -60.246      11.197      70.128
  H      -60.293      11.202      68.344
  H      -69.277      12.143      73.824
  H      -68.545      13.071      72.514
  P      -63.143      10.451      65.653
  C      -64.715       8.430      65.197
  O      -64.599       9.833      65.387
  O      -62.247       9.830      64.481
  O      -63.099      11.942      65.659
  H      -61.552      10.460      64.213
  H      -65.741       8.176      65.032
  H      -64.357       7.921      66.068
  H      -64.134       8.136      64.348

 6  7  8  9  10  11  12  13  14  15  25  28  32  33  34  35 0
 6-311+G(2d,p)
 ****
 36  37  40 0
 6-311+G(2d,p)
 ****
 1  2  3  4  5  16  17  18  19  20  21  22  23  24 0
 3-21G
 ****
 26  27  29  30  31  38  39 41  42  43  44  45  46  47  48 0
 3-21G
 ****


