%nproc=1
%NoSave
%Mem=1900MB
#P OB98/GEN NMR

erre ene a

0 1
  C     -492.380     247.190      28.814
  O     -493.493     247.369      27.933
  P     -494.038     246.198      26.982
  C     -496.090     245.452      28.356
  O     -495.627     246.080      27.164
  C     -497.515     245.894      28.712
  O     -497.502     247.159      29.396
  C     -498.440     246.057      27.510
  O     -498.904     244.794      27.065
  C     -499.525     246.972      28.097
  O     -500.471     246.202      28.864
  C     -498.693     247.883      29.017
  N     -499.182     252.961      29.377
  C     -499.617     251.959      30.169
  N     -499.456     250.623      30.011
  C     -498.730     250.371      28.892
  C     -498.228     251.291      27.980
  C     -498.483     252.649      28.257
  N     -498.056     253.670      27.443
  N     -497.575     250.661      26.952
  C     -497.662     249.379      27.244
  N     -498.344     249.155      28.410
  O     -493.308     244.898      27.136
  O     -493.864     246.768      25.495
  H     -501.143     246.832      29.196
  H     -493.743     246.032      24.871
  H     -500.172     252.261      31.055
  H     -497.234     248.566      26.656
  H     -499.236     248.099      29.949
  H     -500.079     247.509      27.331
  H     -497.918     246.582      26.706
  H     -497.926     245.144      29.417
  H     -495.413     245.721      29.174
  H     -498.303     254.615      27.688
  H     -497.571     253.447      26.585
  H     -496.059     244.368      28.211
  P     -499.142     244.538      25.501
  C     -498.058     242.209      25.510
  O     -499.244     242.954      25.290
  O     -498.190     245.238      24.581
  O     -500.648     245.024      25.253
  H     -500.750     245.349      24.340
  H     -497.407     242.290      24.640
  H     -498.328     241.162      25.672
  H     -497.531     242.581      26.399
  H     -492.197     248.100      29.347
  H     -491.513     246.929      28.244
  H     -492.598     246.407      29.510

 3  4  5  6  7  8  9  10  11  12  22  25  29  30  31  32 0
 6-311+G(2d,p)
 ****
 33  36  37 0
 6-311+G(2d,p)
 ****
 1  2  13  14  15  16  17  18  19  20  21  23  24  26 0
 3-21G
 ****
 27  28  34  35  38  39  40  41  42  43  44  45  46  47  48 0
 3-21G
 ****


