%nproc=1
%NoSave
%Mem=1900MB
#P OB98/GEN NMR

erre ene a

0 1
  C     -897.830    -712.248    -330.188
  O     -898.180    -713.451    -330.854
  H     -897.370    -712.496    -329.231
  H     -898.720    -711.645    -330.000
  H     -897.110    -711.684    -330.788
  P     -898.710    -713.318    -332.358
  C     -897.390    -715.059    -333.815
  O     -897.480    -713.744    -333.289
  C     -896.130    -715.764    -333.338
  O     -896.160    -715.825    -331.880
  C     -895.960    -717.192    -333.869
  O     -894.570    -717.443    -334.088
  C     -896.460    -718.057    -332.717
  O     -895.930    -719.373    -332.781
  C     -896.010    -717.232    -331.504
  N     -896.770    -717.546    -330.300
  C     -896.770    -718.889    -329.893
  O     -896.140    -719.733    -330.533
  N     -897.490    -719.245    -328.772
  C     -898.220    -718.359    -328.178
  N     -898.930    -718.769    -327.093
  C     -898.280    -716.936    -328.605
  C     -897.540    -716.604    -329.636
  O     -898.790    -711.719    -332.541
  O     -900.000    -714.019    -332.636
  H     -894.960    -719.339    -332.651
  H     -898.010    -711.253    -332.182
  H     -898.910    -716.237    -328.060
  H     -897.520    -715.588    -330.022
  H     -894.940    -717.386    -331.296
  H     -897.550    -718.134    -332.750
  H     -896.510    -717.361    -334.787
  H     -895.250    -715.148    -333.586
  H     -898.860    -719.771    -326.842
  H     -897.390    -715.027    -334.919
  H     -899.570    -718.184    -326.585
  H     -898.290    -715.613    -333.495
  P     -894.020    -717.551    -335.582
  C     -891.450    -717.187    -335.628
  O     -892.740    -716.593    -335.766
  O     -895.040    -717.469    -336.666
  O     -893.340    -719.017    -335.590
  H     -893.550    -719.428    -336.450
  H     -890.697    -716.441    -335.774
  H     -891.333    -717.960    -336.359
  H     -891.353    -717.605    -334.648

 6  7  8  9  10  11  12  13  14  15  16  26  30  31  32  33  35 0
 6-311+G(2d,p)
 ****
 37  38 0
 6-311+G(2d,p)
 ****
 1  2  3  4  5  17  18  19  20  21  22  23  24  25 0
 3-21G
 ****
 27  28  29  34  36  39  40  41  42  43  44  45  46 0
 3-21G
 ****


