%nproc=1
%NoSave
%Mem=1900MB
#P OB98/GEN NMR

erre ene a

0 1
  C      -37.844    -209.335    -245.801
  O      -37.596    -209.675    -244.451
  H      -38.814    -209.747    -246.089
  H      -37.076    -209.773    -246.442
  H      -37.870    -208.251    -245.931
  P      -36.301    -209.076    -243.725
  C      -37.416    -209.414    -241.423
  O      -36.275    -209.667    -242.232
  C      -38.383    -210.601    -241.464
  O      -37.643    -211.813    -241.164
  C      -39.533    -210.493    -240.459
  O      -40.719    -211.026    -241.046
  C      -39.083    -211.379    -239.314
  O      -40.181    -211.893    -238.564
  C      -38.283    -212.455    -240.044
  N      -36.160    -216.839    -238.706
  C      -37.081    -216.562    -239.695
  N      -37.520    -217.609    -240.425
  N      -37.538    -215.363    -239.944
  C      -36.996    -214.407    -239.149
  C      -36.078    -214.555    -238.138
  C      -35.595    -215.891    -237.858
  O      -34.792    -216.200    -236.985
  N      -35.788    -213.349    -237.548
  C      -36.532    -212.477    -238.203
  N      -37.292    -213.071    -239.175
  O      -36.161    -207.588    -243.809
  O      -35.074    -209.819    -244.430
  H      -40.757    -211.128    -238.339
  H      -34.612    -209.224    -245.048
  H      -35.850    -217.783    -238.548
  H      -36.561    -211.412    -238.011
  H      -38.919    -213.264    -240.424
  H      -38.442    -210.806    -238.632
  H      -37.193    -218.556    -240.304
  H      -39.710    -209.466    -240.142
  H      -38.173    -217.429    -241.177
  H      -38.764    -210.704    -242.487
  H      -37.916    -208.519    -241.805
  H      -37.093    -209.226    -240.393
  P      -41.863    -210.017    -241.545
  C      -43.214    -211.614    -243.036
  O      -43.201    -210.855    -241.836
  O      -41.458    -209.077    -242.632
  O      -42.237    -209.216    -240.205
  H      -42.464    -208.294    -240.442
  H      -44.149    -212.127    -243.123
  H      -42.417    -212.327    -243.016
  H      -43.086    -210.960    -243.873

 6  7  8  9  10  11  12  13  14  15  26  29  33  34 0
 6-311+G(2d,p)
 ****
 36  38  39  40  41 0
 6-311+G(2d,p)
 ****
 1  2  3  4  5  16  17  18  19  20  21  22  23  24  25 0
 3-21G
 ****
 27  28  30  31  32  35  37  42  43  44  45  46  47 0
 3-21G
 ****
 48  49 0
 3-21G
 ****


