%nproc=1
%NoSave
%Mem=1900MB
#P OB98/GEN NMR

erre ene a

0 1
  C       44.207    -203.436    -121.951
  O       44.230    -204.793    -121.554
  H       44.581    -202.823    -121.129
  H       43.181    -203.133    -122.176
  H       44.844    -203.278    -122.827
  P       43.944    -205.896    -122.683
  C       42.471    -207.574    -121.346
  O       43.743    -207.295    -121.918
  C       42.613    -207.820    -119.843
  O       43.084    -206.593    -119.214
  C       41.305    -208.217    -119.149
  O       41.610    -209.169    -118.117
  C       40.844    -206.919    -118.511
  O       39.968    -207.099    -117.404
  C       42.189    -206.300    -118.120
  N       42.098    -204.857    -117.893
  C       41.699    -204.432    -116.627
  O       41.503    -205.180    -115.666
  N       41.524    -203.078    -116.485
  C       41.679    -202.137    -117.462
  O       41.487    -200.941    -117.279
  C       42.090    -202.646    -118.777
  C       42.275    -203.962    -118.930
  O       45.371    -206.065    -123.392
  O       42.861    -205.555    -123.653
  H       45.463    -205.434    -124.131
  H       40.468    -207.583    -116.711
  H       41.234    -202.757    -115.573
  H       42.216    -201.930    -119.583
  H       42.560    -204.373    -119.896
  H       42.592    -206.787    -117.226
  H       40.329    -206.302    -119.253
  H       40.548    -208.637    -119.821
  H       43.390    -208.582    -119.682
  H       42.050    -208.469    -121.818
  H       41.799    -206.726    -121.532
  P       40.583    -210.387    -117.903
  C       40.730    -210.214    -115.288
  O       40.933    -210.996    -116.460
  O       41.158    -211.456    -118.941
  O       39.158    -209.990    -118.117
  H       42.127    -211.437    -119.014
  H       41.017    -210.781    -114.427
  H       39.697    -209.947    -115.212
  H       41.324    -209.326    -115.344

 6  7  8  9  10  11  12  13  14  15  16  27  31  32  33  34  35 0
 6-311+G(2d,p)
 ****
 36  37 0
 6-311+G(2d,p)
 ****
 1  2  3  4  5  17  18  19  20  21  22  23  24  25 0
 3-21G
 ****
 26  28  29  30  38  39  40  41  42  43  44  45 0
 3-21G
 ****


