%nproc=1
%NoSave
%Mem=1900MB
#P OB98/GEN NMR

erre ene a

0 1
  C     -223.972      32.112       9.808
  O     -222.953      31.468       9.062
  P     -222.213      30.213       9.735
  C     -222.901      28.417       7.940
  O     -223.029      28.919       9.261
  C     -224.246      27.877       7.448
  O     -225.160      28.970       7.221
  C     -224.180      27.122       6.127
  O     -223.664      25.811       6.293
  C     -225.637      27.181       5.681
  O     -226.408      26.176       6.362
  C     -226.056      28.586       6.156
  N     -226.061      29.579       5.084
  C     -227.277      29.781       4.438
  O     -228.305      29.174       4.734
  N     -227.267      30.700       3.422
  C     -226.174      31.370       2.956
  O     -226.213      32.149       2.012
  C     -224.911      31.090       3.656
  C     -224.913      30.223       4.671
  O     -222.625      30.417      11.267
  O     -220.746      30.188       9.471
  H     -223.470      30.892      11.354
  H     -226.198      25.326       5.929
  H     -228.142      30.880       2.953
  H     -224.020      31.598       3.309
  H     -223.990      29.998       5.191
  H     -227.059      28.553       6.599
  H     -225.755      27.012       4.605
  H     -223.556      27.674       5.413
  H     -224.667      27.238       8.236
  H     -222.160      27.613       7.936
  H     -222.549      29.222       7.287
  P     -222.356      25.439       5.432
  C     -221.239      23.550       6.852
  O     -221.267      24.910       6.480
  O     -221.835      26.893       5.017
  O     -222.636      24.529       4.281
  H     -221.886      27.535       5.744
  H     -220.254      23.320       7.265
  H     -221.424      22.898       5.995
  H     -221.994      23.366       7.620
  H     -224.372      32.924       9.238
  H     -223.562      32.486      10.723
  H     -224.751      31.412      10.026

 3  4  5  6  7  8  9  10  11  12  13  24  28  29  30  31  32 0
 6-311+G(2d,p)
 ****
 33  34 0
 6-311+G(2d,p)
 ****
 1  2  14  15  16  17  18  19  20  21  22  23  25  26  27 0
 3-21G
 ****
 35  36  37  38  39  40  41  42  43  44  45 0
 3-21G
 ****


