%nproc=1
%NoSave
%Mem=1900MB
#P OB98/GEN NMR

erre ene a

0 1
  C      310.880     203.075    -103.386
  O      310.733     201.814    -102.764
  P      310.000     200.622    -103.539
  C      309.132     199.716    -101.295
  O      308.789     200.111    -102.620
  C      307.889     199.705    -100.410
  O      307.431     201.051    -100.163
  C      306.698     198.973    -101.018
  O      306.867     197.572    -100.927
  C      305.551     199.534    -100.187
  O      305.452     198.846     -98.931
  C      306.001     200.986     -99.968
  N      302.339     204.522    -100.302
  C      302.658     203.648     -99.325
  N      303.629     202.705     -99.327
  C      304.283     202.708    -100.498
  C      304.047     203.516    -101.600
  C      303.033     204.481    -101.464
  N      302.739     205.420    -102.430
  N      304.912     203.193    -102.630
  C      305.645     202.203    -102.161
  N      305.345     201.923    -100.858
  O      310.899     199.548    -104.054
  O      309.249     201.358    -104.745
  H      306.319     198.923     -98.488
  H      309.584     201.012    -105.594
  H      302.065     203.717     -98.419
  H      306.412     201.679    -102.714
  H      305.805     201.322     -98.942
  H      304.583     199.439    -100.689
  H      306.570     199.281    -102.063
  H      308.162     199.259     -99.443
  H      309.860     200.434    -100.901
  H      302.096     206.153    -102.172
  H      303.430     205.597    -103.153
  H      309.591     198.724    -101.319
  P      306.250     196.622    -102.058
  C      306.471     194.460    -100.699
  O      305.581     195.375    -101.305
  O      307.166     196.271    -103.183
  O      304.975     197.442    -102.584
  H      304.834     197.249    -103.530
  H      306.904     193.806    -101.463
  H      305.914     193.849     -99.981
  H      307.274     194.985    -100.172
  H      311.390     203.742    -102.723
  H      309.914     203.473    -103.619
  H      311.447     202.964    -104.287

 3  4  5  6  7  8  9  10  11  12  22  25  29  30  31  32 0
 6-311+G(2d,p)
 ****
 33  36  37 0
 6-311+G(2d,p)
 ****
 1  2  13  14  15  16  17  18  19  20  21  23  24  26 0
 3-21G
 ****
 27  28  34  35  38  39  40  41  42  43  44  45  46  47  48 0
 3-21G
 ****


