%nproc=1
%NoSave
%Mem=1900MB
#P OB98/GEN NMR

erre ene a

0 1
  C       34.234    -154.188      79.355
  O       33.589    -152.946      79.082
  P       33.882    -151.704      80.053
  C       31.474    -150.870      80.460
  O       32.729    -150.607      79.841
  C       30.679    -149.567      80.646
  O       31.375    -148.727      81.605
  C       30.529    -148.714      79.381
  O       29.413    -148.959      78.530
  C       30.323    -147.325      79.981
  O       28.940    -147.152      80.342
  C       31.184    -147.343      81.241
  N       33.602    -142.840      81.031
  C       32.306    -143.161      81.236
  N       31.742    -144.385      81.275
  C       32.667    -145.341      81.092
  C       34.024    -145.166      80.875
  C       34.492    -143.841      80.843
  N       35.809    -143.513      80.625
  N       34.655    -146.383      80.721
  C       33.690    -147.275      80.824
  N       32.474    -146.698      81.062
  O       35.278    -151.179      80.038
  O       33.518    -152.302      81.496
  H       28.861    -146.254      80.713
  H       34.148    -151.947      82.155
  H       31.629    -142.322      81.384
  H       33.826    -148.344      80.733
  H       30.695    -146.848      82.086
  H       30.564    -146.526      79.273
  H       31.453    -148.730      78.790
  H       29.690    -149.805      81.056
  H       31.637    -151.344      81.431
  H       36.055    -142.538      80.574
  H       36.476    -144.246      80.426
  H       30.949    -151.596      79.839
  P       29.387    -150.207      77.526
  C       29.406    -148.710      75.380
  O       28.725    -149.656      76.174
  O       28.756    -151.442      78.067
  O       30.928    -150.368      77.130
  H       31.283    -149.640      76.591
  H       28.897    -148.630      74.416
  H       30.440    -149.019      75.207
  H       29.384    -147.733      75.870
  H       33.939    -154.911      78.624
  H       33.952    -154.530      80.329
  H       35.295    -154.055      79.317

 3  4  5  6  7  8  9  10  11  12  22  25  29  30  31  32 0
 6-311+G(2d,p)
 ****
 33  36  37 0
 6-311+G(2d,p)
 ****
 1  2  13  14  15  16  17  18  19  20  21  23  24  26 0
 3-21G
 ****
 27  28  34  35  38  39  40  41  42  43  44  45  46  47  48 0
 3-21G
 ****


