%nproc=1
%NoSave
%Mem=1900MB
#P OB98/GEN NMR

erre ene a

0 1
  C       -3.063    -347.534    -160.301
  O       -3.841    -347.604    -161.494
  P       -3.931    -349.029    -162.237
  C       -2.037    -350.536    -163.169
  O       -2.520    -349.212    -162.984
  C       -0.632    -350.514    -163.760
  O        0.272    -349.892    -162.832
  C       -0.047    -351.894    -164.037
  O       -0.514    -352.432    -165.264
  C        1.439    -351.563    -164.113
  O        1.756    -351.058    -165.425
  C        1.590    -350.453    -163.059
  N        5.553    -350.363    -159.905
  C        5.371    -349.730    -161.123
  N        6.386    -348.944    -161.547
  N        4.301    -349.865    -161.861
  C        3.358    -350.651    -161.294
  C        3.419    -351.325    -160.088
  C        4.632    -351.212    -159.308
  O        4.868    -351.801    -158.256
  N        2.254    -352.009    -159.845
  C        1.478    -351.720    -160.871
  N        2.113    -350.920    -161.789
  O       -4.951    -348.745    -163.435
  O       -4.378    -350.162    -161.380
  H        2.727    -350.909    -165.447
  H       -5.382    -349.574    -163.706
  H        6.389    -350.210    -159.371
  H        0.457    -352.065    -160.987
  H        2.229    -349.644    -163.425
  H        2.081    -352.440    -163.946
  H        7.176    -348.698    -160.967
  H       -0.227    -352.578    -163.199
  H        6.256    -348.441    -162.416
  H       -0.655    -349.916    -164.678
  H       -2.705    -351.067    -163.858
  H       -2.049    -351.058    -162.208
  P        0.047    -353.883    -165.665
  C        2.506    -354.716    -165.708
  O        1.604    -353.664    -165.980
  O       -0.607    -354.145    -167.103
  O       -0.287    -354.966    -164.693
  H       -0.684    -355.105    -167.272
  H        2.061    -355.693    -165.915
  H        2.814    -354.674    -164.660
  H        3.390    -354.591    -166.339
  H       -3.090    -346.536    -159.916
  H       -2.051    -347.805    -160.519
  H       -3.464    -348.208    -159.574

 3  4  5  6  7  8  9  10  11  12  23  26  30  31  33  0
 6-311+G(2d,p)
 ****
 35  36  37  38 0
 6-311+G(2d,p)
 ****
 1  2  13  14  15  16  17  18  19  20  21  22  24  25  27  28  29 0
 3-21G
 ****
 32  34  39  40  41  42  43  44  45  46  47  48  49 0
 3-21G
 ****


