%nproc=1
%NoSave
%Mem=1900MB
#P OB98/GEN NMR

erre ene a

0 1
  C     -293.257      71.058      14.978
  O     -292.569      70.882      13.743
  P     -290.974      70.727      13.798
  C     -290.235      68.285      14.417
  O     -290.617      69.211      13.417
  C     -290.262      66.843      13.877
  O     -291.570      66.596      13.298
  C     -289.263      66.546      12.765
  O     -289.100      65.128      12.663
  C     -289.999      67.057      11.544
  O     -289.455      66.524      10.340
  C     -291.462      66.664      11.851
  N     -292.456      67.617      11.313
  C     -293.125      67.285      10.135
  O     -292.935      66.243       9.509
  N     -294.006      68.218       9.657
  C     -294.313      69.405      10.252
  O     -295.047      70.242       9.735
  C     -293.690      69.642      11.559
  C     -292.799      68.761      12.017
  O     -290.642      70.828      15.358
  O     -290.243      71.752      12.998
  H     -288.514      66.810      10.305
  H     -290.247      71.697      15.563
  H     -294.444      68.019       8.770
  H     -293.961      70.546      12.092
  H     -292.313      68.933      12.976
  H     -291.702      65.676      11.436
  H     -289.907      68.146      11.490
  H     -288.289      67.026      12.887
  H     -290.133      66.143      14.712
  H     -290.898      68.381      15.284
  H     -289.224      68.523      14.770
  P     -287.884      64.452      13.459
  C     -288.666      64.468      15.909
  O     -288.531      63.705      14.724
  O     -286.721      65.338      13.758
  O     -287.468      63.229      12.508
  H     -286.568      62.931      12.731
  H     -289.524      64.093      16.474
  H     -288.820      65.528      15.690
  H     -287.762      64.351      16.515
  H     -294.307      71.147      14.792
  H     -292.904      71.946      15.460
  H     -293.077      70.213      15.610

 3  4  5  6  7  8  9  10  11  12  13  23  28  29  30  31  32 0
 6-311+G(2d,p)
 ****
 33  34 0
 6-311+G(2d,p)
 ****
 1  2  14  15  16  17  18  19  20  21  22  24  25  26  27 0
 3-21G
 ****
 35  36  37  38  39  40  41  42  43  44  45 0
 3-21G
 ****


