%nproc=1
%NoSave
%Mem=1900MB
#P OB98/GEN NMR

erre ene a

0 1
  C     -152.382    -115.585     322.320
  O     -152.501    -116.755     323.102
  H     -152.718    -115.809     321.305
  H     -151.343    -115.249     322.281
  H     -153.014    -114.790     322.729
  P     -151.964    -116.723     324.611
  C     -154.354    -116.774     325.596
  O     -153.091    -117.418     325.515
  C     -155.477    -117.799     325.802
  O     -155.816    -118.388     324.514
  C     -155.099    -118.952     326.747
  O     -156.302    -119.390     327.393
  C     -154.609    -119.998     325.761
  O     -154.512    -121.265     326.360
  C     -155.634    -119.818     324.639
  N     -155.204    -120.421     323.388
  C     -155.502    -121.779     323.218
  O     -156.088    -122.396     324.106
  N     -155.105    -122.402     322.064
  C     -154.409    -121.752     321.187
  N     -154.034    -122.434     320.071
  C     -154.019    -120.332     321.352
  C     -154.450    -119.735     322.462
  O     -151.495    -115.397     325.104
  O     -150.779    -117.801     324.620
  H     -153.982    -121.222     327.188
  H     -149.918    -117.344     324.633
  H     -153.423    -119.843     320.598
  H     -154.215    -118.696     322.671
  H     -156.601    -120.253     324.916
  H     -153.607    -119.743     325.401
  H     -154.351    -118.666     327.490
  H     -156.370    -117.274     326.157
  H     -154.312    -123.404     320.006
  H     -154.509    -116.234     324.656
  H     -153.475    -122.037     319.330
  H     -154.359    -116.054     326.420
  P     -156.299    -120.283     328.721
  C     -157.118    -118.631     330.527
  O     -157.441    -119.755     329.716
  O     -154.953    -120.421     329.364
  O     -156.846    -121.718     328.258
  H     -156.439    -122.407     328.816
  H     -157.958    -118.381     331.141
  H     -156.873    -117.798     329.901
  H     -156.280    -118.869     331.149

 6  7  8  9  10  11  12  13  14  15  16  26  30  31  32  33  35 0
 6-311+G(2d,p)
 ****
 37  38 0
 6-311+G(2d,p)
 ****
 1  2  3  4  5  17  18  19  20  21  22  23  24  25 0
 3-21G
 ****
 27  28  29  34  36  39  40  41  42  43  44  45  46 0
 3-21G
 ****


