%nproc=1
%NoSave
%Mem=1900MB
#P OB98/GEN NMR

erre ene a

0 1
  C     -421.610    -583.380     502.079
  O     -421.459    -582.564     503.234
  P     -420.361    -581.387     503.182
  C     -421.589    -579.909     504.931
  O     -420.412    -580.650     504.602
  C     -421.739    -579.814     506.451
  O     -422.042    -581.113     507.022
  C     -420.481    -579.346     507.183
  O     -420.345    -577.920     507.138
  C     -420.771    -579.814     508.600
  O     -421.659    -578.884     509.244
  C     -421.486    -581.161     508.357
  N     -418.799    -583.989     511.591
  C     -419.766    -583.043     511.840
  N     -420.015    -582.749     513.144
  N     -420.435    -582.405     510.909
  C     -420.082    -582.787     509.647
  C     -419.137    -583.724     509.279
  C     -418.399    -584.386     510.323
  O     -417.498    -585.213     510.163
  N     -419.064    -583.851     507.912
  C     -419.960    -582.980     507.466
  N     -420.558    -582.289     508.487
  O     -421.008    -580.316     502.178
  O     -418.991    -581.826     502.735
  H     -422.028    -579.339     510.033
  H     -420.311    -579.695     501.858
  H     -418.307    -584.432     512.351
  H     -420.190    -582.817     506.411
  H     -422.307    -581.309     509.051
  H     -419.871    -579.874     509.204
  H     -419.495    -583.148     513.913
  H     -419.583    -579.846     506.810
  H     -420.672    -582.008     513.358
  H     -422.592    -579.146     506.672
  H     -422.466    -580.408     504.506
  H     -421.516    -578.908     504.493
  P     -418.840    -577.346     507.196
  C     -419.825    -575.409     505.773
  O     -418.991    -575.771     506.827
  O     -418.159    -577.977     505.903
  O     -418.103    -577.664     508.458
  H     -417.186    -578.054     506.022
  H     -420.015    -574.323     505.826
  H     -420.794    -575.929     505.811
  H     -419.346    -575.624     504.809
  H     -422.369    -584.113     502.257
  H     -420.683    -583.870     501.865
  H     -421.892    -582.770     501.246

 3  4  5  6  7  8  9  10  11  12  23  26  30  31 0
 6-311+G(2d,p)
 ****
 33  35  36  37  38 0
 6-311+G(2d,p)
 ****
 1  2  13  14  15  16  17  18  19  20  21  22  24  25 0
 3-21G
 ****
 27  28  29  32  34  39  40  41  42  43  44  45  46  47  48  49 0
 3-21G
 ****


