%nproc=1
%NoSave
%Mem=1900MB
#P OB98/GEN NMR

erre ene a

0 1
  C      324.301     182.430     356.851
  O      324.105     181.054     357.115
  H      325.316     182.729     357.126
  H      324.160     182.604     355.781
  H      323.570     183.026     357.407
  P      324.374     180.575     358.622
  C      324.703     178.229     357.571
  O      324.152     178.985     358.638
  C      323.958     176.909     357.418
  O      324.168     176.078     358.580
  C      322.444     177.044     357.288
  O      322.054     177.423     355.974
  C      322.005     175.624     357.616
  O      322.159     174.788     356.454
  C      323.010     175.207     358.700
  N      320.274     172.868     362.363
  C      320.613     172.488     361.108
  N      321.330     173.163     360.187
  C      321.733     174.348     360.674
  C      321.467     174.872     361.930
  C      320.693     174.079     362.794
  N      320.340     174.480     364.065
  N      322.054     176.109     362.078
  C      322.665     176.335     360.935
  N      322.495     175.303     360.050
  O      323.103     181.132     359.425
  O      325.654     181.051     359.224
  H      321.735     175.259     355.711
  H      323.385     181.404     360.318
  H      320.261     171.505     360.805
  H      323.243     177.222     360.704
  H      323.371     174.181     358.543
  H      320.962     175.555     357.930
  H      322.041     177.732     358.042
  H      324.373     176.383     356.550
  H      325.759     178.020     357.775
  H      319.963     173.801     364.700
  H      320.666     175.390     364.384
  H      324.633     178.816     356.647
  P      321.586     178.946     355.754
  C      319.359     178.118     354.704
  O      320.537     178.899     354.538
  O      322.878     179.629     355.104
  O      321.140     179.657     356.984
  H      322.870     180.590     355.285
  H      318.761     178.182     353.819
  H      318.801     178.487     355.539
  H      319.629     177.098     354.878

 6  7  8  9  10  11  12  13  14  15  25  28  32  33  34  35 0
 6-311+G(2d,p)
 ****
 36  39  40 0
 6-311+G(2d,p)
 ****
 1  2  3  4  5  16  17  18  19  20  21  22  23  24 0
 3-21G
 ****
 26  27  29  30  31  37  38  41  42  43  44  45  46  47  48 0
 3-21G
 ****


