%nproc=1
%NoSave
%Mem=1900MB
#P OB98/GEN NMR

erre ene a

0 1
  C      445.740     540.800      24.823
  O      445.085     540.012      23.841
  P      445.620     539.969      22.322
  C      446.470     541.985      20.949
  O      445.441     541.466      21.776
  C      446.303     543.497      20.785
  O      446.690     544.159      22.017
  C      447.159     544.115      19.696
  O      446.609     543.853      18.413
  C      447.160     545.579      20.123
  O      445.934     546.221      19.729
  C      447.215     545.457      21.661
  N      448.561     545.655      22.202
  C      448.845     546.923      22.721
  O      447.998     547.808      22.730
  N      450.091     547.141      23.259
  C      450.980     546.193      23.254
  N      452.179     546.452      23.861
  C      450.740     544.862      22.664
  C      449.512     544.660      22.168
  O      444.995     538.921      21.469
  O      447.204     539.832      22.455
  H      445.208     545.627      19.987
  H      447.521     538.896      22.516
  H      451.519     544.109      22.680
  H      449.249     543.706      21.737
  H      446.543     546.194      22.122
  H      447.995     546.158      19.703
  H      448.187     543.715      19.737
  H      445.241     543.703      20.616
  H      452.237     547.310      24.406
  H      446.401     541.515      19.964
  H      452.794     545.701      24.160
  H      447.445     541.743      21.387
  P      447.582     544.011      17.144
  C      448.869     546.111      16.314
  O      447.664     545.593      16.841
  O      446.711     543.420      15.936
  O      448.899     543.322      17.295
  H      447.001     542.508      15.726
  H      448.679     547.125      15.944
  H      449.214     545.492      15.477
  H      449.635     546.154      17.085
  H      445.235     540.694      25.760
  H      445.725     541.827      24.524
  H      446.754     540.473      24.925

 3  4  5  6  7  8  9  10  11  12  13  23  27  28  29  30  32 0
 6-311+G(2d,p)
 ****
 34  35 0
 6-311+G(2d,p)
 ****
 1  2  14  15  16  17  18  19  20  21  22  24  25  26 0
 3-21G
 ****
 31  33  36  37  38  39  40  41  42  43  44  45  46 0
 3-21G
 ****


