%nproc=1
%NoSave
%Mem=1900MB
#P OB98/GEN NMR

erre ene a

0 1
  C      908.964    -438.282    -356.270
  O      907.764    -438.888    -356.745
  P      907.709    -440.495    -356.745
  C      905.124    -440.987    -356.659
  O      906.322    -440.931    -357.418
  C      904.356    -439.643    -356.711
  O      903.887    -439.443    -358.082
  C      903.119    -439.576    -355.841
  O      902.764    -438.202    -355.640
  C      902.079    -440.249    -356.710
  O      900.752    -439.932    -356.296
  C      902.467    -439.752    -358.126
  N      902.206    -440.732    -359.185
  C      900.876    -441.117    -359.441
  O      899.901    -440.673    -358.791
  N      900.679    -442.058    -360.396
  C      901.648    -442.617    -361.177
  O      901.429    -443.512    -361.966
  C      903.007    -442.091    -360.988
  C      903.215    -441.187    -360.020
  O      907.525    -440.877    -355.204
  O      908.909    -441.136    -357.347
  H      900.630    -438.972    -356.413
  H      908.357    -441.205    -354.841
  H      899.734    -442.378    -360.528
  H      903.796    -442.452    -361.631
  H      904.217    -440.788    -359.848
  H      901.927    -438.833    -358.392
  H      902.188    -441.324    -356.648
  H      903.206    -440.065    -354.867
  H      905.058    -438.833    -356.481
  H      905.354    -441.254    -355.636
  H      904.472    -441.784    -357.044
  P      902.531    -437.664    -354.145
  C      903.285    -435.217    -354.222
  O      902.194    -436.119    -354.278
  O      903.597    -438.030    -353.152
  O      901.114    -438.325    -353.767
  H      901.011    -438.322    -352.781
  H      903.024    -434.322    -354.801
  H      904.186    -435.662    -354.638
  H      903.471    -434.927    -353.189
  H      908.871    -437.217    -356.322
  H      909.787    -438.598    -356.876
  H      909.134    -438.576    -355.255

 3  4  5  6  7  8  9  10  11  12  13  23  28  29  30  31  32 0
 6-311+G(2d,p)
 ****
 33  34 0
 6-311+G(2d,p)
 ****
 1  2  14  15  16  17  18  19  20  21  22  24  25  26  27 0
 3-21G
 ****
 35  36  37  38  39  40  41  42  43  44  45 0
 3-21G
 ****


