%nproc=1
%NoSave
%Mem=1900MB
#P OB98/GEN NMR

erre ene a

0 1
  C     -236.196     248.667     165.028
  O     -236.750     248.723     163.725
  P     -238.247     249.229     163.490
  C     -239.072     247.038     162.300
  O     -238.860     248.433     162.251
  C     -240.182     246.671     161.307
  O     -241.472     247.009     161.856
  C     -240.022     247.416     159.984
  O     -239.314     246.622     159.045
  C     -241.458     247.692     159.583
  O     -242.037     246.532     158.959
  C     -242.122     247.949     160.958
  N     -242.004     249.297     161.545
  C     -242.891     250.297     161.156
  O     -243.808     250.124     160.359
  N     -242.671     251.535     161.707
  C     -241.701     251.840     162.618
  O     -241.363     252.981     162.913
  C     -240.984     250.695     163.185
  C     -241.147     249.501     162.618
  O     -238.042     250.707     162.915
  O     -239.126     249.214     164.697
  H     -241.644     246.456     158.071
  H     -238.161     251.371     163.621
  H     -243.222     252.296     161.322
  H     -240.305     250.873     164.009
  H     -240.597     248.644     162.997
  H     -243.188     247.700     160.930
  H     -241.516     248.492     158.849
  H     -239.514     248.375     160.148
  H     -240.161     245.587     161.137
  H     -239.351     246.737     163.315
  H     -238.148     246.509     162.048
  P     -238.095     247.261     158.228
  C     -239.024     247.614     155.866
  O     -238.292     246.758     156.719
  O     -236.740     247.033     158.811
  O     -238.466     248.820     158.176
  H     -237.982     249.300     158.880
  H     -238.931     247.251     154.839
  H     -238.635     248.636     155.920
  H     -240.079     247.604     156.151
  H     -235.191     248.304     164.973
  H     -236.780     248.008     165.636
  H     -236.199     249.646     165.459

 3  4  5  6  7  8  9  10  11  12  13  23  28  29  30  31  32 0
 6-311+G(2d,p)
 ****
 33  34 0
 6-311+G(2d,p)
 ****
 1  2  14  15  16  17  18  19  20  21  22  24  25  26  27 0
 3-21G
 ****
 35  36  37  38  39  40  41  42  43  44  45 0
 3-21G
 ****


