%nproc=1
%NoSave
%Mem=1900MB
#P OB98/GEN NMR

erre ene a

0 1
  C      374.225    -795.670    1343.683
  O      374.820    -796.774    1342.988
  P      376.100    -797.559    1343.534
  C      375.257    -799.988    1343.839
  O      376.040    -799.086    1343.061
  C      374.583    -801.051    1342.971
  O      373.602    -800.478    1342.123
  C      375.530    -801.821    1342.051
  O      376.298    -802.769    1342.795
  C      374.551    -802.430    1341.061
  O      373.951    -803.632    1341.589
  C      373.484    -801.294    1340.947
  N      373.647    -800.518    1339.724
  C      372.890    -800.917    1338.618
  O      372.177    -801.929    1338.694
  N      372.975    -800.176    1337.461
  C      373.802    -799.185    1337.370
  N      373.829    -798.484    1336.206
  C      374.691    -798.784    1338.489
  C      374.549    -799.492    1339.626
  O      376.336    -797.396    1345.013
  O      377.350    -796.956    1342.701
  H      374.672    -804.269    1341.728
  H      378.149    -796.981    1343.260
  H      375.396    -797.943    1338.374
  H      375.147    -799.242    1340.485
  H      372.463    -801.717    1340.967
  H      375.013    -802.686    1340.114
  H      376.193    -801.108    1341.539
  H      374.078    -801.755    1343.669
  H      373.225    -798.801    1335.474
  H      374.480    -799.388    1344.370
  H      374.438    -797.704    1336.047
  H      375.910    -800.440    1344.599
  P      377.899    -802.684    1342.765
  C      378.263    -802.906    1345.306
  O      378.430    -803.519    1344.025
  O      378.470    -801.311    1342.629
  O      378.311    -803.623    1341.520
  H      379.127    -803.272    1341.146
  H      378.306    -803.691    1346.075
  H      377.305    -802.383    1345.370
  H      379.095    -802.209    1345.483
  H      373.385    -795.309    1343.127
  H      374.945    -794.886    1343.790
  H      373.901    -795.991    1344.651

 3  4  5  6  7  8  9  10  11  12  13  23  27  28  29  30  32 0
 6-311+G(2d,p)
 ****
 34  35 0
 6-311+G(2d,p)
 ****
 1  2  14  15  16  17  18  19  20  21  22  24  25  26 0
 3-21G
 ****
 31  33  36  37  38  39  40  41  42  43  44  45  46 0
 3-21G
 ****


