%nproc=1
%NoSave
%Mem=1900MB
#P OB98/GEN NMR

erre ene a

0 1
  C      386.686    -256.720      94.325
  O      387.367    -257.138      93.158
  H      386.200    -257.588      94.778
  H      385.921    -255.975      94.087
  H      387.398    -256.305      95.047
  P      387.945    -256.008      92.175
  C      386.908    -253.925      91.048
  O      386.660    -255.197      91.650
  C      385.597    -253.181      90.780
  O      384.698    -253.336      91.896
  C      385.768    -251.679      90.614
  O      386.440    -251.300      89.432
  C      384.361    -251.157      90.884
  O      383.525    -251.159      89.732
  C      383.835    -252.182      91.915
  N      383.725    -251.607      93.253
  C      382.430    -251.375      93.707
  O      381.422    -251.605      93.037
  N      382.326    -250.817      94.952
  C      383.371    -250.434      95.746
  O      383.210    -249.902      96.838
  C      384.716    -250.682      95.201
  C      384.832    -251.251      94.000
  O      388.842    -256.497      91.078
  O      388.650    -254.967      93.165
  H      383.594    -252.044      89.328
  H      389.267    -254.372      92.675
  H      381.396    -250.649      95.303
  H      385.566    -250.389      95.803
  H      385.815    -251.441      93.573
  H      382.838    -252.536      91.621
  H      384.383    -250.131      91.262
  H      386.394    -251.316      91.444
  H      385.121    -253.624      89.898
  H      387.422    -254.102      90.099
  H      387.560    -253.332      91.701
  P      387.192    -249.902      89.259
  C      386.462    -247.469      89.808
  O      386.089    -248.730      89.271
  O      388.283    -249.845      88.239
  O      387.881    -249.732      90.710
  H      388.734    -249.274      90.579
  H      385.632    -246.796      89.749
  H      387.283    -247.072      89.249
  H      386.752    -247.589      90.831

 6  7  8  9  10  11  12  13  14  15  16  26  31  32  33  34  35 0
 6-311+G(2d,p)
 ****
 36  37 0
 6-311+G(2d,p)
 ****
 1  2  3  4  5  17  18  19  20  21  22  23  24  25 0
 3-21G
 ****
 27  28  29  30  38  39  40  41  42  43  44  45 0
 3-21G
 ****


