%nproc=1
%NoSave
%Mem=1900MB
#P OB98/GEN NMR

erre ene a

0 1
  C       76.270     -24.473      48.173
  O       76.424     -25.349      49.274
  H       77.175     -23.868      48.077
  H       75.418     -23.808      48.339
  H       76.127     -25.046      47.254
  P       75.201     -26.346      49.571
  C       74.454     -24.628      51.359
  O       74.079     -25.409      50.231
  C       73.381     -23.587      51.669
  O       73.217     -22.684      50.561
  C       71.998     -24.170      51.937
  O       71.899     -24.646      53.269
  C       71.125     -22.946      51.709
  O       71.157     -22.100      52.875
  C       71.832     -22.244      50.534
  N       69.143     -20.338      46.597
  C       69.387     -19.855      47.835
  N       70.073     -20.435      48.843
  C       70.534     -21.642      48.474
  C       70.365     -22.264      47.246
  C       69.639     -21.555      46.274
  N       69.402     -22.047      45.008
  N       70.978     -23.499      47.235
  C       71.553     -23.598      48.417
  N       71.284     -22.515      49.218
  O       75.547     -27.590      50.314
  O       74.629     -26.574      48.091
  H       70.637     -21.300      52.672
  H       74.665     -25.747      47.580
  H       68.978     -18.872      48.043
  H       72.185     -24.418      48.736
  H       71.831     -21.154      50.653
  H       70.078     -23.208      51.534
  H       71.738     -24.939      51.200
  H       73.728     -22.993      52.524
  H       75.413     -24.132      51.179
  H       68.733     -21.554      44.435
  H       69.665     -23.002      44.812
  H       74.572     -25.312      52.205
  P       70.849     -25.798      53.650
  C       69.091     -24.080      54.404
  O       69.387     -25.148      53.511
  O       71.105     -26.478      54.951
  O       70.910     -26.819      52.422
  H       70.835     -27.739      52.741
  H       68.097     -23.728      54.222
  H       69.787     -23.282      54.249
  H       69.167     -24.428      55.413

 6  7  8  9  10  11  12  13  14  15  25  28  32  33  34  35 0
 6-311+G(2d,p)
 ****
 36  39  40 0
 6-311+G(2d,p)
 ****
 1  2  3  4  5  16  17  18  19  20  21  22  23  24 0
 3-21G
 ****
 26  27  29  30  31  37  38  41  42  43  44  45  46  47 0
 3-21G
 ****
 48 0
 3-21G
 ****


