%nproc=1
%NoSave
%Mem=1900MB
#P OB98/GEN NMR

erre ene a

0 1
  C     -150.234    -215.857     -49.852
  O     -150.523    -214.674     -49.141
  H     -149.151    -215.927     -49.986
  H     -150.708    -215.820     -50.836
  H     -150.578    -216.743     -49.311
  P     -151.949    -214.533     -48.428
  C     -151.041    -214.521     -46.012
  O     -151.836    -215.204     -46.972
  C     -151.878    -213.582     -45.141
  O     -152.981    -214.302     -44.549
  C     -151.077    -213.003     -43.976
  O     -150.305    -211.855     -44.280
  C     -152.179    -212.670     -42.974
  O     -152.738    -211.373     -43.240
  C     -153.216    -213.766     -43.235
  N     -155.712    -216.414     -39.649
  C     -156.142    -215.326     -40.383
  N     -157.370    -214.850     -40.081
  N     -155.422    -214.753     -41.310
  C     -154.180    -215.276     -41.436
  C     -153.636    -216.344     -40.756
  C     -154.462    -217.007     -39.767
  O     -154.126    -217.970     -39.084
  N     -152.345    -216.592     -41.156
  C     -152.083    -215.631     -42.020
  N     -153.175    -214.824     -42.243
  O     -152.871    -215.581     -49.220
  O     -152.548    -213.160     -48.457
  H     -153.565    -211.284     -42.732
  H     -153.803    -215.304     -49.172
  H     -156.318    -216.833     -38.966
  H     -151.136    -215.490     -42.529
  H     -154.235    -213.361     -43.233
  H     -151.800    -212.645     -41.947
  H     -157.910    -215.184     -39.298
  H     -150.434    -213.772     -43.536
  H     -157.609    -213.910     -40.402
  H     -152.306    -212.793     -45.770
  H     -150.299    -213.947     -46.572
  H     -150.497    -215.237     -45.390
  P     -149.121    -211.403     -43.303
  C     -147.651    -213.314     -44.291
  O     -148.144    -212.662     -43.138
  O     -149.852    -211.298     -41.885
  O     -148.449    -210.126     -43.678
  H     -150.111    -210.373     -41.706
  H     -147.019    -214.126     -43.999
  H     -147.090    -212.620     -44.881
  H     -148.471    -213.690     -44.866

 6  7  8  9  10  11  12  13  14  15  26  29  33  34 0
 6-311+G(2d,p)
 ****
 36  38  39  40  41 0
 6-311+G(2d,p)
 ****
 1  2  3  4  5  16  17  18  19  20  21  22  23  24  25 0
 3-21G
 ****
 27  28  30  31  32  35  37  42  43  44  45  46  47 0
 3-21G
 ****
 48  49 0
 3-21G
 ****


