%nproc=1
%NoSave
%Mem=1900MB
#P OB98/GEN NMR

erre ene a

0 1
  C     -415.707     349.254     155.610
  O     -416.873     349.749     154.978
  H     -414.826     349.485     154.997
  H     -415.596     349.743     156.579
  H     -415.785     348.174     155.750
  P     -417.196     349.190     153.509
  C     -419.720     349.730     153.783
  O     -418.543     349.926     153.009
  C     -420.704     350.861     153.522
  O     -420.105     352.111     153.966
  C     -421.115     351.026     152.041
  O     -422.541     350.925     151.906
  C     -420.715     352.457     151.698
  O     -421.667     353.129     150.884
  C     -420.559     353.121     153.065
  N     -418.009     356.488     155.924
  C     -418.553     355.286     156.233
  N     -419.121     354.391     155.400
  C     -419.080     354.815     154.120
  C     -418.546     356.014     153.663
  C     -418.007     356.879     154.633
  N     -417.502     358.127     154.329
  N     -418.698     356.121     152.294
  C     -419.352     355.033     151.943
  N     -419.626     354.218     153.019
  O     -417.661     347.684     153.783
  O     -416.061     349.242     152.545
  H     -422.544     352.802     151.146
  H     -417.210     347.079     153.175
  H     -418.528     355.000     157.285
  H     -419.703     354.795     150.941
  H     -421.523     353.510     153.440
  H     -419.745     352.434     151.163
  H     -420.616     350.318     151.380
  H     -421.601     350.695     154.145
  H     -419.461     349.718     154.846
  H     -417.246     358.721     155.100
  H     -417.589     358.469     153.385
  H     -420.159     348.756     153.531
  P     -423.161     349.434     151.994
  C     -425.567     349.936     152.859
  O     -424.738     349.563     151.768
  O     -423.049     349.088     153.567
  O     -422.443     348.427     151.150
  H     -422.986     348.130     153.703
  H     -426.586     349.975     152.536
  H     -425.270     350.899     153.219
  H     -425.469     349.216     153.644

 6  7  8  9  10  11  12  13  14  15  25  28  32  33  34  35 0
 6-311+G(2d,p)
 ****
 36  39  40 0
 6-311+G(2d,p)
 ****
 1  2  3  4  5  16  17  18  19  20  21  22  23  24 0
 3-21G
 ****
 26  27  29  30  31  37  38  41  42  43  44  45  46  47  48 0
 3-21G
 ****


