%nproc=1
%NoSave
%Mem=1900MB
#P OB98/GEN NMR

erre ene a

0 1
  C      727.213     -39.352      87.443
  O      726.224     -38.964      86.488
  P      725.404     -37.611      86.778
  C      725.749     -35.112      86.070
  O      726.245     -36.446      86.075
  C      726.878     -34.128      85.765
  O      727.959     -34.279      86.726
  C      727.523     -34.326      84.405
  O      726.689     -33.840      83.358
  C      728.828     -33.556      84.585
  O      728.608     -32.147      84.422
  C      729.174     -33.864      86.061
  N      730.227     -34.859      86.205
  C      731.433     -34.395      86.728
  O      731.627     -33.219      87.035
  N      732.420     -35.331      86.875
  C      732.336     -36.649      86.525
  O      733.257     -37.442      86.690
  C      731.059     -37.069      85.931
  C      730.075     -36.174      85.796
  O      725.674     -37.417      88.341
  O      723.966     -37.707      86.386
  H      726.566     -37.704      88.612
  H      729.297     -31.697      84.955
  H      733.300     -35.016      87.264
  H      730.962     -38.107      85.614
  H      729.124     -36.461      85.362
  H      729.498     -32.944      86.570
  H      729.596     -33.854      83.870
  H      727.739     -35.393      84.238
  H      726.478     -33.110      85.854
  H      725.312     -34.868      87.045
  H      724.950     -35.037      85.323
  P      725.782     -34.929      82.596
  C      723.911     -36.048      84.037
  O      724.354     -34.915      83.321
  O      726.456     -36.293      83.083
  O      725.757     -34.743      81.109
  H      726.654     -36.300      84.032
  H      723.120     -35.743      84.728
  H      724.719     -36.506      84.611
  H      723.498     -36.786      83.337
  H      727.677     -40.263      87.126
  H      726.750     -39.500      88.396
  H      727.953     -38.584      87.522

 3  4  5  6  7  8  9  10  11  12  13  24  28  29  30  31  32 0
 6-311+G(2d,p)
 ****
 33  34 0
 6-311+G(2d,p)
 ****
 1  2  14  15  16  17  18  19  20  21  22  23  25  26  27 0
 3-21G
 ****
 35  36  37  38  39  40  41  42  43  44  45 0
 3-21G
 ****


