%nproc=1
%NoSave
%Mem=1900MB
#P OB98/GEN NMR

erre ene a

0 1
  C       53.322    -337.226    -415.046
  O       54.029    -338.398    -415.466
  P       55.426    -338.706    -414.747
  C       57.838    -337.769    -414.928
  O       56.596    -337.977    -415.581
  C       58.449    -336.407    -415.294
  O       58.902    -336.412    -416.681
  C       57.484    -335.235    -415.139
  O       58.255    -334.090    -414.748
  C       56.979    -335.015    -416.555
  O       56.422    -333.708    -416.715
  C       58.260    -335.299    -417.348
  N       59.665    -334.404    -422.185
  C       60.127    -333.931    -420.997
  N       59.685    -334.205    -419.751
  C       58.673    -335.093    -419.804
  C       58.088    -335.650    -420.925
  C       58.619    -335.270    -422.162
  N       58.135    -335.722    -423.372
  N       57.044    -336.487    -420.566
  C       56.997    -336.423    -419.241
  N       57.982    -335.623    -418.736
  O       55.664    -340.264    -415.065
  O       55.428    -338.449    -413.279
  H       55.843    -333.525    -415.936
  H       55.532    -340.792    -414.252
  H       60.974    -333.238    -421.065
  H       56.279    -336.926    -418.628
  H       58.951    -334.440    -417.347
  H       56.201    -335.753    -416.790
  H       56.669    -335.404    -414.431
  H       59.339    -336.250    -414.663
  H       58.544    -338.562    -415.181
  H       58.556    -335.379    -424.224
  H       57.332    -336.327    -423.376
  H       57.690    -337.855    -413.834
  P       57.834    -333.385    -413.363
  C       56.573    -331.163    -412.884
  O       56.732    -332.274    -413.732
  O       59.126    -332.513    -412.974
  O       57.451    -334.338    -412.277
  H       59.161    -332.374    -412.021
  H       56.408    -330.271    -413.493
  H       57.451    -331.003    -412.254
  H       55.700    -331.320    -412.246
  H       52.412    -337.140    -415.602
  H       53.929    -336.362    -415.219
  H       53.096    -337.300    -414.003

 3  4  5  6  7  8  9  10  11  12  22  25  29  30  31  32 0
 6-311+G(2d,p)
 ****
 33  36  37 0
 6-311+G(2d,p)
 ****
 1  2  13  14  15  16  17  18  19  20  21  23  24  26 0
 3-21G
 ****
 27  28  34  35  38  39  40  41  42  43  44  45  46  47  48 0
 3-21G
 ****


