%nproc=1
%NoSave
%Mem=1900MB
#P OB98/GEN NMR

erre ene a

0 1
  C     -178.678     188.632     -67.667
  O     -178.423     187.404     -67.013
  H     -177.955     189.372     -67.319
  H     -179.686     188.983     -67.428
  H     -178.572     188.515     -68.749
  P     -179.370     186.170     -67.404
  C     -181.016     186.267     -65.392
  O     -180.813     186.492     -66.782
  C     -182.331     185.523     -65.179
  O     -183.336     186.040     -66.083
  C     -182.251     184.030     -65.473
  O     -181.652     183.304     -64.416
  C     -183.717     183.694     -65.685
  O     -184.391     183.472     -64.440
  C     -184.257     184.959     -66.364
  N     -187.627     184.279     -70.137
  C     -187.786     184.503     -68.816
  N     -186.833     184.686     -67.876
  C     -185.610     184.651     -68.430
  C     -185.293     184.436     -69.761
  C     -186.371     184.245     -70.640
  N     -186.209     183.993     -71.983
  N     -183.924     184.430     -69.938
  C     -183.422     184.644     -68.738
  N     -184.402     184.788     -67.796
  O     -178.815     184.983     -66.484
  O     -179.367     185.802     -68.850
  H     -184.240     184.271     -63.900
  H     -178.234     184.405     -67.014
  H     -188.814     184.527     -68.462
  H     -182.364     184.697     -68.503
  H     -185.237     185.257     -65.970
  H     -183.826     182.792     -66.288
  H     -181.709     183.860     -66.412
  H     -182.672     185.701     -64.151
  H     -181.056     187.229     -64.872
  H     -180.175     185.684     -65.001
  H     -187.023     183.799     -72.542
  H     -185.274     183.853     -72.346
  P     -180.718     182.060     -64.803
  C     -182.662     180.322     -64.750
  O     -181.648     180.967     -65.512
  O     -180.359     181.394     -63.390
  O     -179.491     182.420     -65.573
  H     -179.448     181.044     -63.411
  H     -183.187     179.626     -65.371
  H     -183.347     181.054     -64.376
  H     -182.214     179.801     -63.930

 6  7  8  9  10  11  12  13  14  15  25  28  32  33  34  35 0
 6-311+G(2d,p)
 ****
 36  37  40 0
 6-311+G(2d,p)
 ****
 1  2  3  4  5  16  17  18  19  20  21  22  23  24 0
 3-21G
 ****
 26  27  29  30  31  38  39 41  42  43  44  45  46  47  48 0
 3-21G
 ****


