%nproc=1
%NoSave
%Mem=1900MB
#P OB98/GEN NMR

erre ene a

0 1
  C      -46.758     -81.081      90.943
  O      -47.845     -81.913      91.296
  H      -46.081     -81.645      90.297
  H      -46.215     -80.779      91.843
  H      -47.107     -80.197      90.403
  P      -49.062     -81.215      92.076
  C      -47.950     -81.925      94.311
  O      -49.131     -81.906      93.523
  C      -48.244     -82.511      95.689
  O      -49.289     -81.756      96.343
  C      -48.717     -83.961      95.665
  O      -47.629     -84.870      95.577
  C      -49.400     -84.053      97.020
  O      -48.408     -84.178      98.059
  C      -50.097     -82.690      97.113
  N      -54.974     -83.513      98.228
  C      -53.849     -83.640      99.019
  N      -54.051     -84.056     100.288
  N      -52.634     -83.388      98.606
  C      -52.582     -82.993      97.312
  C      -53.625     -82.826      96.428
  C      -54.963     -83.101      96.900
  O      -55.997     -82.982      96.248
  N      -53.181     -82.401      95.203
  C      -51.872     -82.329      95.338
  N      -51.457     -82.685      96.599
  O      -50.359     -81.794      91.331
  O      -49.055     -79.725      92.072
  H      -47.804     -84.893      97.786
  H      -51.041     -81.095      91.300
  H      -55.885     -83.730      98.591
  H      -51.185     -82.025      94.560
  H      -50.143     -82.314      98.142
  H      -50.059     -84.918      97.101
  H      -54.953     -84.313     100.655
  H      -49.454     -84.130      94.872
  H      -53.246     -84.124     100.898
  H      -47.337     -82.411      96.299
  H      -47.576     -80.902      94.425
  H      -47.191     -82.526      93.800
  P      -47.490     -85.735      94.229
  C      -49.310     -87.409      95.020
  O      -47.959     -87.219      94.620
  O      -45.906     -85.881      94.057
  O      -48.135     -85.137      93.027
  H      -45.687     -86.057      93.120
  H      -49.473     -88.442      95.248
  H      -49.962     -87.112      94.226
  H      -49.512     -86.816      95.888

 6  7  8  9  10  11  12  13  14  15  26  29  33  34 0
 6-311+G(2d,p)
 ****
 36  38  39  40  41 0
 6-311+G(2d,p)
 ****
 1  2  3  4  5  16  17  18  19  20  21  22  23  24  25 0
 3-21G
 ****
 27  28  30  31  32  35  37  42  43  44  45  46  47 0
 3-21G
 ****
 48  49 0
 3-21G
 ****


