%nproc=1
%NoSave
%Mem=1900MB
#P OB98/GEN NMR

erre ene a

0 1
  C       53.775    -194.082      -5.798
  O       54.168    -195.339      -6.302
  H       52.796    -193.832      -6.218
  H       54.485    -193.307      -6.093
  H       53.688    -194.117      -4.708
  P       55.656    -195.869      -5.998
  C       55.708    -196.472      -3.504
  O       55.473    -196.957      -4.821
  C       55.476    -197.561      -2.456
  O       54.070    -197.920      -2.429
  C       56.277    -198.844      -2.708
  O       56.893    -199.267      -1.488
  C       55.220    -199.849      -3.143
  O       55.625    -201.193      -2.903
  C       54.003    -199.357      -2.351
  N       52.740    -199.870      -2.870
  C       52.443    -201.206      -2.584
  O       53.245    -201.898      -1.954
  N       51.267    -201.738      -3.046
  C       50.480    -201.016      -3.780
  N       49.333    -201.605      -4.217
  C       50.774    -199.616      -4.147
  C       51.907    -199.111      -3.658
  O       56.653    -194.798      -5.713
  O       56.027    -196.771      -7.266
  H       54.893    -201.791      -3.177
  H       57.008    -196.873      -7.319
  H       50.091    -199.058      -4.771
  H       52.201    -198.086      -3.869
  H       54.085    -199.645      -1.294
  H       55.032    -199.738      -4.218
  H       57.051    -198.729      -3.463
  H       55.700    -197.140      -1.468
  H       49.168    -202.565      -3.942
  H       55.044    -195.619      -3.322
  H       48.650    -201.142      -4.799
  H       56.750    -196.136      -3.444
  P       58.379    -199.864      -1.618
  C       59.912    -197.850      -2.168
  O       59.411    -198.719      -1.165
  O       58.591    -199.968      -3.199
  O       58.554    -201.184      -0.944
  H       58.458    -200.887      -3.497
  H       60.583    -197.144      -1.725
  H       59.098    -197.329      -2.628
  H       60.433    -198.422      -2.907

 6  7  8  9  10  11  12  13  14  15  16  26  30  31  32  33  35 0
 6-311+G(2d,p)
 ****
 37  38 0
 6-311+G(2d,p)
 ****
 1  2  3  4  5  17  18  19  20  21  22  23  24  25 0
 3-21G
 ****
 27  28  29  34  36  39  40  41  42  43  44  45  46 0
 3-21G
 ****


