%nproc=1
%NoSave
%Mem=1900MB
#P OB98/GEN NMR

erre ene a

0 1
  C       81.379      -3.097     -64.731
  O       82.749      -3.368     -64.409
  P       83.986      -2.720     -65.203
  C       84.135      -4.360     -67.188
  O       83.836      -3.036     -66.771
  C       84.310      -4.453     -68.709
  O       83.021      -4.281     -69.375
  C       85.275      -3.409     -69.303
  O       86.007      -4.072     -70.340
  C       84.313      -2.377     -69.870
  O       84.899      -1.519     -70.831
  C       83.228      -3.309     -70.422
  N       81.970      -2.663     -70.783
  C       81.441      -2.930     -72.052
  O       82.039      -3.637     -72.862
  N       80.234      -2.364     -72.392
  C       79.614      -1.597     -71.551
  N       78.421      -1.078     -71.947
  C       80.143      -1.274     -70.214
  C       81.309      -1.836     -69.900
  O       85.320      -3.102     -64.649
  O       83.771      -1.136     -65.109
  H       84.641      -0.698     -65.035
  H       85.183      -2.063     -71.587
  H       79.590      -0.636     -69.540
  H       81.752      -1.671     -68.922
  H       83.622      -3.852     -71.290
  H       83.940      -1.757     -69.050
  H       85.984      -3.004     -68.575
  H       84.653      -5.468     -68.949
  H       78.085      -1.331     -72.870
  H       83.309      -5.013     -66.889
  H       77.850      -0.477     -71.371
  H       85.043      -4.700     -66.678
  P       87.218      -5.050     -69.956
  C       88.869      -4.051     -71.708
  O       88.585      -4.308     -70.347
  O       87.114      -6.170     -71.103
  O       87.152      -5.690     -68.606
  H       87.505      -7.001     -70.775
  H       89.248      -3.028     -71.800
  H       87.986      -4.156     -72.344
  H       89.640      -4.746     -72.048
  H       80.742      -3.642     -64.066
  H       81.183      -3.398     -65.739
  H       81.189      -2.049     -64.629

 3  4  5  6  7  8  9  10  11  12  13  24  27  28  29  30  32 0
 6-311+G(2d,p)
 ****
 34  35 0
 6-311+G(2d,p)
 ****
 1  2  14  15  16  17  18  19  20  21  22  23  25  26 0
 3-21G
 ****
 31  33  36  37  38  39  40  41  42  43  44  45  46 0
 3-21G
 ****


