%nproc=1
%NoSave
%Mem=1900MB
#P OB98/GEN NMR

erre ene a

0 1
  C       -2.518     -53.680     -61.316
  O       -2.639     -53.465     -62.713
  P       -1.551     -52.599     -63.514
  C       -3.415     -50.922     -64.083
  O       -2.127     -51.103     -63.507
  C       -3.708     -49.436     -64.259
  O       -3.790     -48.828     -62.947
  C       -2.646     -48.630     -65.007
  O       -2.759     -48.676     -66.422
  C       -2.967     -47.222     -64.523
  O       -4.104     -46.708     -65.240
  C       -3.328     -47.458     -63.055
  N       -0.351     -43.968     -60.790
  C       -1.426     -43.851     -61.602
  N       -2.154     -44.830     -62.180
  C       -1.698     -46.037     -61.811
  C       -0.619     -46.315     -60.988
  C        0.073     -45.210     -60.463
  N        1.154     -45.333     -59.618
  N       -0.445     -47.679     -60.856
  C       -1.410     -48.209     -61.576
  N       -2.198     -47.260     -62.165
  O       -1.185     -53.148     -64.848
  O       -0.305     -52.509     -62.516
  H       -4.351     -45.865     -64.814
  H        0.494     -52.235     -63.006
  H       -1.742     -42.834     -61.821
  H       -1.575     -49.269     -61.702
  H       -4.143     -46.812     -62.712
  H       -2.145     -46.519     -64.685
  H       -1.635     -48.902     -64.680
  H       -4.687     -49.331     -64.741
  H       -4.158     -51.357     -63.404
  H        1.504     -44.491     -59.189
  H        1.367     -46.248     -59.248
  H       -3.469     -51.452     -65.036
  P       -1.516     -48.115     -67.274
  C       -2.889     -46.122     -68.270
  O       -1.803     -46.551     -67.478
  O       -1.220     -48.880     -68.516
  O       -0.320     -48.135     -66.210
  H       -0.409     -47.507     -65.475
  H       -3.007     -45.042     -68.150
  H       -3.816     -46.610     -67.959
  H       -2.693     -46.339     -69.324
  H       -3.338     -54.277     -60.975
  H       -2.527     -52.738     -60.808
  H       -1.598     -54.186     -61.111

 3  4  5  6  7  8  9  10  11  12  22  25  29  30  31  32 0
 6-311+G(2d,p)
 ****
 33  36  37 0
 6-311+G(2d,p)
 ****
 1  2  13  14  15  16  17  18  19  20  21  23  24  26 0
 3-21G
 ****
 27  28  34  35  38  39  40  41  42  43  44  45  46  47  48 0
 3-21G
 ****


