%nproc=1
%NoSave
%Mem=1900MB
#P OB98/GEN NMR

erre ene a

0 1
  C      394.201     -93.747      81.329
  O      394.140     -92.860      80.226
  P      394.585     -93.447      78.794
  C      396.894     -92.655      77.848
  O      396.190     -93.446      78.795
  C      397.321     -91.337      78.494
  O      398.104     -91.589      79.680
  C      398.178     -90.446      77.601
  O      397.359     -89.715      76.702
  C      398.894     -89.579      78.631
  O      398.052     -88.497      79.074
  C      399.155     -90.579      79.764
  N      404.083     -89.965      80.694
  C      403.057     -89.038      80.708
  N      403.387     -87.779      81.072
  N      401.817     -89.322      80.407
  C      401.639     -90.620      80.054
  C      402.579     -91.629      79.982
  C      403.935     -91.310      80.374
  O      404.860     -92.109      80.474
  N      402.026     -92.810      79.566
  C      400.746     -92.523      79.409
  N      400.454     -91.220      79.714
  O      394.195     -92.269      77.785
  O      393.967     -94.759      78.418
  H      398.579     -87.867      79.595
  H      393.340     -92.455      77.348
  H      405.022     -89.689      80.956
  H      399.990     -93.236      79.102
  H      399.068     -90.113      80.751
  H      399.801     -89.120      78.219
  H      404.326     -87.479      81.297
  H      398.907     -91.051      77.050
  H      402.644     -87.081      81.082
  H      396.411     -90.805      78.810
  H      396.235     -92.445      76.997
  H      397.762     -93.216      77.490
  P      398.065     -89.084      75.403
  C      398.151     -86.495      75.641
  O      398.795     -87.733      75.872
  O      396.823     -88.569      74.532
  O      398.915     -90.045      74.633
  H      397.020     -88.694      73.580
  H      398.458     -85.794      76.419
  H      397.062     -86.595      75.658
  H      398.459     -86.108      74.663
  H      393.882     -93.238      82.214
  H      395.207     -94.088      81.457
  H      393.560     -94.585      81.149

 3  4  5  6  7  8  9  10  11  12  23  26  30  31 0
 6-311+G(2d,p)
 ****
 33  35  36  37  38 0
 6-311+G(2d,p)
 ****
 1  2  13  14  15  16  17  18  19  20  21  22  24  25 0
 3-21G
 ****
 27  28  29  32  34  39  40  41  42  43  44  45  46  47  48  49 0
 3-21G
 ****


