%nproc=1
%NoSave
%Mem=1900MB
#P OB98/GEN NMR

erre ene a

0 1
  C      -11.726    -420.237    1121.043
  O      -11.728    -418.991    1121.704
  H      -12.744    -420.467    1120.715
  H      -11.401    -421.018    1121.737
  H      -11.069    -420.217    1120.168
  P      -10.311    -418.270    1121.917
  C      -10.795    -415.812    1121.239
  O      -10.245    -417.063    1120.860
  C      -11.994    -415.464    1120.354
  O      -13.053    -416.432    1120.608
  C      -12.575    -414.065    1120.599
  O      -13.010    -413.514    1119.351
  C      -13.801    -414.348    1121.445
  O      -14.769    -413.310    1121.362
  C      -14.257    -415.676    1120.844
  N      -18.846    -415.382    1122.851
  C      -18.260    -414.642    1121.844
  N      -18.981    -413.619    1121.330
  N      -17.056    -414.876    1121.379
  C      -16.453    -415.937    1121.973
  C      -16.921    -416.746    1122.979
  C      -18.249    -416.466    1123.494
  O      -18.815    -417.069    1124.401
  N      -15.984    -417.673    1123.347
  C      -14.935    -417.416    1122.576
  N      -15.174    -416.363    1121.729
  O       -9.281    -419.347    1121.333
  O       -9.989    -417.901    1123.327
  H      -15.536    -413.557    1121.916
  H       -8.937    -419.903    1122.059
  H      -19.763    -415.149    1123.180
  H      -13.990    -417.932    1122.604
  H      -14.770    -415.541    1119.887
  H      -13.510    -414.471    1122.497
  H      -19.918    -413.395    1121.613
  H      -11.871    -413.369    1121.077
  H      -18.574    -413.094    1120.566
  H      -11.698    -415.584    1119.301
  H      -10.031    -415.033    1121.122
  H      -11.098    -415.856    1122.289
  P      -12.044    -412.466    1118.610
  C      -12.034    -413.436    1116.195
  O      -11.307    -413.210    1117.397
  O      -10.868    -412.246    1119.673
  O      -12.715    -411.174    1118.261
  H      -10.550    -411.326    1119.630
  H      -11.407    -413.939    1115.488
  H      -12.350    -412.498    1115.788
  H      -12.891    -414.041    1116.405

 6  7  8  9  10  11  12  13  14  15  26  29  33  34 0
 6-311+G(2d,p)
 ****
 36  38  39  40  41 0
 6-311+G(2d,p)
 ****
 1  2  3  4  5  16  17  18  19  20  21  22  23  24  25 0
 3-21G
 ****
 27  28  30  31  32  35  37  42  43  44  45  46  47 0
 3-21G
 ****
 48  49 0
 3-21G
 ****


