%nproc=1
%NoSave
%Mem=1900MB
#P OB98/GEN NMR

erre ene a

0 1
  C     -411.841    1012.921    -168.142
  O     -412.484    1013.732    -169.111
  H     -412.493    1012.837    -167.268
  H     -410.900    1013.380    -167.826
  H     -411.655    1011.919    -168.537
  P     -411.775    1013.934    -170.536
  C     -413.500    1012.811    -172.071
  O     -412.956    1014.047    -171.624
  C     -414.782    1013.055    -172.864
  O     -415.794    1013.577    -171.977
  C     -414.614    1014.047    -174.028
  O     -415.409    1013.603    -175.122
  C     -415.193    1015.335    -173.462
  O     -415.674    1016.198    -174.489
  C     -416.277    1014.822    -172.536
  N     -420.031    1016.865    -169.835
  C     -420.062    1015.854    -170.771
  N     -421.271    1015.321    -171.066
  N     -418.994    1015.405    -171.388
  C     -417.845    1016.013    -170.993
  C     -417.694    1017.031    -170.078
  C     -418.877    1017.527    -169.423
  O     -418.919    1018.435    -168.587
  N     -416.371    1017.410    -169.980
  C     -415.734    1016.621    -170.833
  N     -416.590    1015.770    -171.479
  O     -410.713    1012.944    -170.877
  O     -411.199    1015.427    -170.472
  H     -416.055    1016.987    -174.047
  H     -410.245    1015.422    -170.273
  H     -420.892    1017.175    -169.406
  H     -414.674    1016.642    -171.013
  H     -417.230    1014.611    -173.064
  H     -414.418    1015.875    -172.902
  H     -422.127    1015.603    -170.625
  H     -413.573    1014.163    -174.343
  H     -421.310    1014.563    -171.736
  H     -415.159    1012.086    -173.235
  H     -413.720    1012.189    -171.201
  H     -412.766    1012.290    -172.699
  P     -414.978    1014.011    -176.608
  C     -413.313    1012.077    -176.984
  O     -414.542    1012.688    -177.392
  O     -414.010    1015.153    -176.711
  O     -416.382    1014.385    -177.306
  H     -416.230    1015.060    -177.981
  H     -413.133    1011.207    -177.580
  H     -413.379    1011.797    -175.953
  H     -412.509    1012.771    -177.114

 6  7  8  9  10  11  12  13  14  15  26  29  33  34 0
 6-311+G(2d,p)
 ****
 36  38  39  40  41 0
 6-311+G(2d,p)
 ****
 1  2  3  4  5  16  17  18  19  20  21  22  23  24  25 0
 3-21G
 ****
 27  28  30  31  32  35  37  42  43  44  45  46  47 0
 3-21G
 ****
 48  49 0
 3-21G
 ****


