%nproc=1
%NoSave
%Mem=1900MB
#P OB98/GEN NMR

erre ene a

0 1
  C     -265.462    -355.971     189.650
  O     -266.744    -356.078     190.248
  P     -267.198    -357.527     190.778
  C     -267.894    -356.649     193.128
  O     -267.035    -357.500     192.374
  C     -268.947    -357.478     193.858
  O     -268.329    -358.533     194.628
  C     -269.780    -356.689     194.855
  O     -270.834    -355.966     194.232
  C     -270.345    -357.804     195.717
  O     -271.468    -358.418     195.059
  C     -269.164    -358.787     195.785
  N     -269.203    -359.290     200.816
  C     -270.125    -359.718     199.879
  N     -271.237    -360.315     200.361
  N     -269.964    -359.581     198.592
  C     -268.804    -358.962     198.256
  C     -267.814    -358.494     199.098
  C     -268.014    -358.641     200.522
  O     -267.261    -358.235     201.402
  N     -266.786    -357.932     198.390
  C     -267.143    -358.059     197.133
  N     -268.381    -358.632     196.998
  O     -266.007    -358.485     190.303
  O     -268.524    -357.987     190.271
  H     -272.194    -357.762     195.085
  H     -266.298    -359.418     190.328
  H     -269.377    -359.417     201.804
  H     -266.551    -357.733     196.285
  H     -269.493    -359.828     195.721
  H     -270.696    -357.455     196.690
  H     -271.449    -360.394     201.342
  H     -269.145    -356.035     195.472
  H     -271.957    -360.582     199.695
  H     -269.593    -357.949     193.104
  H     -268.384    -355.946     192.454
  H     -267.292    -356.080     193.847
  P     -270.904    -354.387     194.536
  C     -270.413    -353.812     192.055
  O     -270.012    -353.692     193.402
  O     -270.026    -354.240     195.866
  O     -272.291    -353.857     194.707
  H     -270.316    -353.456     196.377
  H     -269.865    -353.073     191.456
  H     -271.485    -353.617     191.941
  H     -270.175    -354.811     191.679
  H     -265.293    -354.959     189.346
  H     -265.412    -356.613     188.795
  H     -264.713    -356.261     190.357

 3  4  5  6  7  8  9  10  11  12  23  26  30  31 0
 6-311+G(2d,p)
 ****
 33  35  36  37  38 0
 6-311+G(2d,p)
 ****
 1  2  13  14  15  16  17  18  19  20  21  22  24  25 0
 3-21G
 ****
 27  28  29  32  34  39  40  41  42  43  44  45  46  47  48  49 0
 3-21G
 ****


