%nproc=1
%NoSave
%Mem=1900MB
#P OB98/GEN NMR

erre ene a

0 1
  C     -273.064     781.879     439.833
  O     -271.997     782.671     440.312
  H     -273.380     781.201     440.628
  H     -272.723     781.282     438.980
  H     -273.914     782.493     439.534
  P     -271.553     783.958     439.474
  C     -273.351     785.764     439.889
  O     -272.083     785.244     440.270
  C     -273.187     786.960     438.939
  O     -274.500     787.384     438.484
  C     -272.550     788.159     439.652
  O     -271.825     788.993     438.755
  C     -273.759     788.925     440.171
  O     -273.488     790.303     440.411
  C     -274.775     788.678     439.049
  N     -278.741     791.644     440.243
  C     -277.428     792.000     440.008
  N     -277.137     793.322     440.104
  N     -276.480     791.142     439.735
  C     -276.912     789.852     439.743
  C     -278.178     789.373     439.981
  C     -279.224     790.347     440.252
  O     -280.395     790.082     440.487
  N     -278.223     788.005     439.909
  C     -276.980     787.648     439.637
  N     -276.150     788.738     439.498
  O     -272.514     783.924     438.190
  O     -270.110     784.004     439.073
  H     -274.342     790.739     440.595
  H     -272.124     784.431     437.458
  H     -279.436     792.350     440.426
  H     -276.636     786.634     439.515
  H     -274.654     789.423     438.251
  H     -274.069     788.480     441.123
  H     -277.781     793.978     440.508
  H     -271.899     787.865     440.467
  H     -276.149     793.556     440.248
  H     -272.625     786.656     438.045
  H     -273.857     786.070     440.807
  H     -273.958     784.982     439.426
  P     -270.247     788.766     438.600
  C     -270.006     787.033     436.609
  O     -269.905     788.357     437.089
  O     -269.976     787.428     439.427
  O     -269.405     789.903     439.078
  H     -269.404     787.616     440.195
  H     -269.728     787.006     435.576
  H     -271.014     786.691     436.716
  H     -269.353     786.399     437.171

 6  7  8  9  10  11  12  13  14  15  26  29  33  34 0
 6-311+G(2d,p)
 ****
 36  38  39  40  41 0
 6-311+G(2d,p)
 ****
 1  2  3  4  5  16  17  18  19  20  21  22  23  24  25 0
 3-21G
 ****
 27  28  30  31  32  35  37  42  43  44  45  46  47 0
 3-21G
 ****
 48  49 0
 3-21G
 ****


