%nproc=1
%NoSave
%Mem=1900MB
#P OB98/GEN NMR

erre ene a

0 1
  C      -39.585       3.303     -72.976
  O      -38.304       3.037     -72.441
  H      -40.289       3.429     -72.150
  H      -39.913       2.461     -73.593
  H      -39.568       4.220     -73.571
  P      -37.081       3.001     -73.484
  C      -36.761       5.418     -74.453
  O      -36.445       4.472     -73.448
  C      -36.690       6.839     -73.893
  O      -37.906       7.109     -73.154
  C      -35.509       7.074     -72.952
  O      -35.018       8.399     -73.159
  C      -36.127       6.960     -71.570
  O      -35.363       7.654     -70.585
  C      -37.539       7.510     -71.818
  N      -38.504       7.027     -70.833
  C      -38.256       7.353     -69.496
  O      -37.252       7.999     -69.192
  N      -39.123       6.906     -68.531
  C      -40.113       6.137     -68.863
  N      -40.924       5.709     -67.858
  C      -40.383       5.723     -70.254
  C      -39.555       6.206     -71.177
  O      -37.852       2.951     -74.885
  O      -36.122       1.880     -73.263
  H      -35.761       7.470     -69.706
  H      -38.626       3.537     -74.924
  H      -41.213       5.068     -70.478
  H      -39.684       5.960     -72.225
  H      -37.536       8.607     -71.788
  H      -36.180       5.906     -71.270
  H      -34.698       6.359     -73.087
  H      -36.672       7.542     -74.734
  H      -40.693       5.999     -66.916
  H      -37.765       5.233     -74.848
  H      -41.691       5.067     -67.994
  H      -36.044       5.297     -75.271
  P      -33.632       8.609     -73.936
  C      -34.258       7.754     -76.287
  O      -33.941       8.883     -75.487
  O      -32.579       7.587     -73.672
  O      -33.154      10.056     -73.425
  H      -32.184      10.028     -73.308
  H      -34.441       8.070     -77.293
  H      -35.133       7.276     -75.898
  H      -33.439       7.066     -76.273

 6  7  8  9  10  11  12  13  14  15  16  26  30  31  32  33  35 0
 6-311+G(2d,p)
 ****
 37  38 0
 6-311+G(2d,p)
 ****
 1  2  3  4  5  17  18  19  20  21  22  23  24  25 0
 3-21G
 ****
 27  28  29  34  36  39  40  41  42  43  44  45  46 0
 3-21G
 ****


