%nproc=1
%NoSave
%Mem=1900MB
#P OB98/GEN NMR

erre ene a

0 1
  C       89.189    -589.221    -233.410
  O       88.533    -590.390    -232.963
  H       89.935    -588.934    -232.665
  H       88.472    -588.407    -233.523
  H       89.696    -589.406    -234.362
  P       87.401    -590.988    -233.934
  C       85.491    -592.738    -233.652
  O       86.555    -592.024    -233.048
  C       84.717    -593.538    -232.597
  O       85.465    -594.753    -232.287
  C       84.518    -592.790    -231.268
  O       83.303    -593.268    -230.668
  C       85.715    -593.272    -230.463
  O       85.556    -592.964    -229.095
  C       85.711    -594.749    -230.860
  N       88.469    -597.001    -227.196
  C       87.231    -596.469    -227.187
  N       86.551    -595.900    -228.206
  C       87.287    -595.923    -229.337
  C       88.558    -596.440    -229.499
  C       89.165    -596.998    -228.358
  N       90.432    -597.534    -228.366
  N       88.990    -596.288    -230.811
  C       87.988    -595.687    -231.420
  N       86.941    -595.441    -230.570
  O       88.235    -591.927    -234.932
  O       86.587    -589.978    -234.671
  H       84.705    -593.313    -228.754
  H       88.444    -591.439    -235.748
  H       86.707    -596.501    -226.232
  H       87.967    -595.400    -232.469
  H       84.891    -595.294    -230.381
  H       86.635    -592.779    -230.794
  H       84.463    -591.704    -231.387
  H       83.752    -593.857    -233.020
  H       85.913    -593.424    -234.404
  H       84.812    -592.037    -234.150
  H       90.796    -597.902    -227.499
  H       90.968    -597.527    -229.221
  P       82.021    -592.293    -230.605
  C       79.600    -592.362    -231.603
  O       80.749    -593.086    -231.173
  O       82.331    -591.261    -231.794
  O       81.822    -591.571    -229.315
  H       81.904    -590.409    -231.601
  H       78.855    -593.048    -231.948
  H       79.872    -591.701    -232.399
  H       79.210    -591.794    -230.785

 6  7  8  9  10  11  12  13  14  15  25  28  32  33  34  35 0
 6-311+G(2d,p)
 ****
 36  37  40 0
 6-311+G(2d,p)
 ****
 1  2  3  4  5  16  17  18  19  20  21  22  23  24 0
 3-21G
 ****
 26  27  29  30  31  38  39 41  42  43  44  45  46  47  48 0
 3-21G
 ****


