%nproc=1
%NoSave
%Mem=1900MB
#P OB98/GEN NMR

erre ene a

0 1
  C     -206.077    -477.414      49.743
  O     -204.837    -477.138      50.360
  H     -206.248    -478.494      49.772
  H     -206.070    -477.090      48.698
  H     -206.889    -476.919      50.281
  P     -204.297    -475.625      50.341
  C     -201.926    -476.460      49.698
  O     -203.046    -475.665      49.331
  C     -200.686    -475.583      49.860
  O     -199.517    -476.383      50.129
  C     -200.317    -474.761      48.626
  O     -201.176    -473.650      48.411
  C     -198.906    -474.344      49.002
  O     -198.958    -473.286      49.978
  C     -198.359    -475.648      49.629
  N     -197.606    -476.468      48.679
  C     -196.232    -476.604      48.922
  O     -195.707    -476.049      49.890
  N     -195.472    -477.332      48.037
  C     -196.027    -477.865      46.993
  N     -195.226    -478.536      46.122
  C     -197.476    -477.762      46.711
  C     -198.197    -477.053      47.580
  O     -204.024    -475.004      51.675
  O     -205.382    -474.826      49.477
  H     -198.055    -473.164      50.316
  H     -205.099    -473.877      49.445
  H     -197.890    -478.217      45.822
  H     -199.263    -476.922      47.431
  H     -197.721    -475.427      50.495
  H     -198.325    -473.971      48.152
  H     -200.272    -475.392      47.734
  H     -200.846    -474.942      50.736
  H     -194.234    -478.551      46.327
  H     -201.774    -477.217      48.923
  H     -195.523    -478.731      45.172
  H     -202.120    -476.962      50.651
  P     -201.717    -473.398      46.917
  C     -200.524    -471.079      46.926
  O     -200.743    -472.310      46.250
  O     -203.077    -472.594      47.165
  O     -201.919    -474.629      46.086
  H     -203.845    -473.197      47.189
  H     -199.856    -470.471      46.352
  H     -200.095    -471.271      47.887
  H     -201.456    -470.568      47.047

 6  7  8  9  10  11  12  13  14  15  16  26  30  31  32  33  35 0
 6-311+G(2d,p)
 ****
 37  38 0
 6-311+G(2d,p)
 ****
 1  2  3  4  5  17  18  19  20  21  22  23  24  25 0
 3-21G
 ****
 27  28  29  34  36  39  40  41  42  43  44  45  46 0
 3-21G
 ****


