%nproc=1
%NoSave
%Mem=1900MB
#P OB98/GEN NMR

erre ene a

0 1
  C     -219.755     224.652     603.781
  O     -220.941     225.401     604.078
  P     -221.842     226.055     602.923
  C     -222.849     228.320     602.240
  O     -221.906     227.662     603.078
  C     -222.256     229.557     601.536
  O     -221.866     230.577     602.489
  C     -221.019     229.269     600.660
  O     -221.050     230.219     599.590
  C     -219.871     229.615     601.617
  O     -218.633     229.839     600.960
  C     -220.459     230.831     602.323
  N     -217.540     234.108     604.988
  C     -218.153     234.228     603.781
  N     -218.942     233.329     603.173
  C     -219.113     232.218     603.925
  C     -218.548     231.962     605.167
  C     -217.722     232.970     605.697
  N     -217.050     232.843     606.904
  N     -218.919     230.701     605.631
  C     -219.685     230.204     604.661
  N     -219.837     231.087     603.614
  O     -223.199     225.417     602.760
  O     -220.985     225.838     601.583
  H     -218.772     230.566     600.318
  H     -221.581     225.503     600.872
  H     -217.992     235.168     603.249
  H     -220.122     229.225     604.678
  H     -220.350     231.741     601.714
  H     -219.732     228.767     602.317
  H     -220.973     228.239     600.281
  H     -223.061     229.991     600.911
  H     -223.704     228.636     602.852
  H     -216.408     233.571     607.154
  H     -217.072     231.953     607.376
  H     -223.223     227.601     601.485
  P     -220.723     229.794     598.087
  C     -218.622     229.070     596.788
  O     -219.131     229.596     598.008
  O     -221.275     230.698     597.019
  O     -221.292     228.300     597.950
  H     -221.409     228.072     596.998
  H     -218.823     227.996     596.736
  H     -217.532     229.246     596.760
  H     -219.077     229.585     595.940
  H     -219.312     224.309     604.693
  H     -219.060     225.276     603.259
  H     -220.008     223.811     603.169

 3  4  5  6  7  8  9  10  11  12  22  25  29  30  31  32 0
 6-311+G(2d,p)
 ****
 33  36  37 0
 6-311+G(2d,p)
 ****
 1  2  13  14  15  16  17  18  19  20  21  23  24  26 0
 3-21G
 ****
 27  28  34  35  38  39  40  41  42  43  44  45  46  47  48 0
 3-21G
 ****


