%nproc=1
%NoSave
%Mem=1900MB
#P OB98/GEN NMR

erre ene a

0 1
  C       71.409     104.343      67.640
  O       72.557     103.491      67.589
  P       72.944     102.623      68.881
  C       71.566     100.455      69.109
  O       72.719     101.067      68.552
  C       71.365      99.037      68.544
  O       71.275      99.092      67.097
  C       72.513      98.080      68.912
  O       72.058      96.850      69.480
  C       73.303      97.961      67.617
  O       74.070      96.768      67.541
  C       72.226      98.159      66.542
  N       72.791      98.629      65.274
  C       73.274      97.651      64.407
  O       73.316      96.457      64.691
  N       73.779      98.111      63.218
  C       73.909      99.414      62.849
  O       74.411      99.771      61.790
  C       73.441     100.406      63.832
  C       72.910      99.970      64.983
  O       72.363     103.090      70.176
  O       74.551     102.735      68.915
  H       73.506      96.020      67.829
  H       74.828     102.815      69.850
  H       74.117      97.415      62.570
  H       73.549     101.452      63.588
  H       72.566     100.679      65.727
  H       71.701      97.222      66.334
  H       74.008      98.800      67.561
  H       73.159      98.506      69.690
  H       70.414      98.662      68.937
  H       70.683     101.052      68.874
  H       71.646     100.452      70.202
  P       72.889      95.976      70.530
  C       72.452      96.325      73.063
  O       71.990      95.779      71.841
  O       74.292      96.429      70.790
  O       72.893      94.513      69.864
  H       73.777      94.105      69.989
  H       71.954      95.810      73.889
  H       72.192      97.389      73.107
  H       73.538      96.212      73.176
  H       71.296     104.845      66.702
  H       71.536     105.066      68.419
  H       70.537     103.755      67.837

 3  4  5  6  7  8  9  10  11  12  13  23  28  29  30  31  32 0
 6-311+G(2d,p)
 ****
 33  34 0
 6-311+G(2d,p)
 ****
 1  2  14  15  16  17  18  19  20  21  22  24  25  26  27 0
 3-21G
 ****
 35  36  37  38  39  40  41  42  43  44  45 0
 3-21G
 ****


