%nproc=1
%NoSave
%Mem=1900MB
#P OB98/GEN NMR

erre ene a

0 1
  C      -45.319     329.867     -11.639
  O      -45.707     331.219     -11.779
  H      -44.701     329.773     -10.740
  H      -44.736     329.536     -12.501
  H      -46.203     329.233     -11.521
  P      -46.405     331.665     -13.156
  C      -44.274     333.098     -13.432
  O      -45.216     332.239     -14.073
  C      -43.884     334.261     -14.348
  O      -43.733     333.799     -15.705
  C      -44.932     335.364     -14.418
  O      -45.068     336.109     -13.228
  C      -44.567     336.077     -15.712
  O      -43.567     337.078     -15.547
  C      -44.010     334.916     -16.572
  N      -44.916     334.551     -17.655
  C      -44.956     335.430     -18.732
  O      -44.296     336.470     -18.787
  N      -45.818     335.097     -19.741
  C      -46.663     334.028     -19.749
  O      -47.445     333.807     -20.667
  C      -46.597     333.149     -18.571
  C      -45.738     333.447     -17.592
  O      -47.573     332.597     -13.023
  O      -46.769     330.276     -13.863
  H      -43.914     337.725     -14.900
  H      -47.433     330.408     -14.583
  H      -45.853     335.719     -20.535
  H      -47.256     332.290     -18.542
  H      -45.673     332.813     -16.709
  H      -43.050     335.205     -17.022
  H      -45.438     336.566     -16.156
  H      -45.906     334.894     -14.594
  H      -42.918     334.656     -14.012
  H      -43.383     332.504     -13.208
  H      -44.697     333.473     -12.494
  P      -46.391     336.093     -12.331
  C      -47.355     338.220     -13.476
  O      -47.555     336.850     -13.143
  O      -46.223     336.394     -10.877
  O      -46.840     334.549     -12.456
  H      -47.248     334.294     -11.606
  H      -48.207     338.585     -14.011
  H      -46.482     338.315     -14.088
  H      -47.226     338.790     -12.580

 6  7  8  9  10  11  12  13  14  15  16  26  31  32  33  34  35 0
 6-311+G(2d,p)
 ****
 36  37 0
 6-311+G(2d,p)
 ****
 1  2  3  4  5  17  18  19  20  21  22  23  24  25 0
 3-21G
 ****
 27  28  29  30  38  39  40  41  42  43  44  45 0
 3-21G
 ****


