%nproc=1
%NoSave
%Mem=1900MB
#P OB98/GEN NMR

erre ene a

0 1
  C      184.319      91.406    -111.603
  O      183.771      90.182    -111.149
  P      182.698      90.254    -109.956
  C      180.590      89.899    -111.441
  O      181.325      90.775    -110.596
  C      179.098      90.209    -111.348
  O      178.562      89.704    -110.108
  C      178.756      91.692    -111.362
  O      178.863      92.231    -112.670
  C      177.339      91.658    -110.801
  O      176.411      91.267    -111.826
  C      177.445      90.553    -109.736
  N      175.201      92.073    -105.392
  C      174.692      91.634    -106.563
  N      175.352      91.269    -107.682
  C      176.678      91.385    -107.508
  C      177.341      91.838    -106.381
  C      176.545      92.191    -105.280
  N      177.069      92.644    -104.089
  N      178.705      91.842    -106.582
  C      178.864      91.387    -107.807
  N      177.671      91.083    -108.402
  O      183.199      91.501    -109.090
  O      182.587      89.009    -109.133
  H      175.513      91.334    -111.445
  H      183.024      91.359    -108.139
  H      173.608      91.564    -106.609
  H      179.817      91.256    -108.301
  H      176.549      89.922    -109.693
  H      177.008      92.625    -110.409
  H      179.415      92.243    -110.681
  H      178.593      89.693    -112.175
  H      180.756      88.864    -111.127
  H      176.424      93.014    -103.408
  H      178.056      92.864    -104.057
  H      180.950      90.012    -112.467
  P      179.158      93.802    -112.797
  C      181.626      93.851    -112.086
  O      180.286      94.071    -111.683
  O      177.851      94.433    -112.129
  O      179.479      94.272    -114.173
  H      177.641      94.018    -111.274
  H      182.287      94.119    -111.259
  H      181.869      94.473    -112.952
  H      181.776      92.795    -112.330
  H      185.014      91.214    -112.394
  H      184.824      91.892    -110.795
  H      183.533      92.036    -111.964

 3  4  5  6  7  8  9  10  11  12  22  25  29  30  31  32 0
 6-311+G(2d,p)
 ****
 33  36  37 0
 6-311+G(2d,p)
 ****
 1  2  13  14  15  16  17  18  19  20  21  23  24  26 0
 3-21G
 ****
 27  28  34  35  38  39  40  41  42  43  44  45  46  47  48 0
 3-21G
 ****


