%nproc=1
%NoSave
%Mem=1900MB
#P OB98/GEN NMR

erre ene a

0 1
  C     -947.770    -579.802     144.348
  O     -948.240    -579.203     143.170
  H     -948.189    -580.808     144.426
  H     -948.082    -579.225     145.221
  H     -946.675    -579.881     144.327
  P     -947.712    -577.709     142.851
  C     -945.509    -578.689     141.863
  O     -946.115    -577.796     142.803
  C     -945.171    -577.937     140.581
  O     -944.211    -576.887     140.860
  C     -944.525    -578.802     139.509
  O     -945.473    -579.616     138.811
  C     -943.859    -577.760     138.636
  O     -944.783    -577.186     137.705
  C     -943.431    -576.690     139.668
  N     -938.734    -575.671     137.939
  C     -939.977    -575.388     137.451
  N     -941.169    -575.688     137.981
  C     -941.016    -576.313     139.156
  C     -939.827    -576.658     139.796
  C     -938.648    -576.306     139.138
  N     -937.398    -576.612     139.625
  N     -940.099    -577.334     140.961
  C     -941.400    -577.378     141.051
  N     -942.011    -576.785     139.975
  O     -948.020    -576.936     144.223
  O     -948.356    -577.048     141.676
  H     -944.325    -576.426     137.299
  H     -948.830    -576.413     144.130
  H     -939.966    -574.868     136.491
  H     -941.962    -577.850     141.851
  H     -943.616    -575.669     139.315
  H     -943.023    -578.176     138.076
  H     -943.738    -579.443     139.966
  H     -946.091    -577.471     140.206
  H     -946.217    -579.510     141.644
  H     -944.609    -579.117     142.323
  H     -936.595    -576.384     139.070
  H     -937.334    -577.188     140.456
  P     -944.915    -580.888     137.998
  C     -945.189    -582.588     139.966
  O     -944.301    -581.891     139.093
  O     -943.611    -580.331     137.255
  O     -945.886    -581.485     137.058
  H     -943.519    -580.766     136.383
  H     -944.623    -583.209     140.628
  H     -945.854    -583.195     139.388
  H     -945.756    -581.882     140.536

 6  7  8  9  10  11  12  13  14  15  25  28  32  33  34  35 0
 6-311+G(2d,p)
 ****
 36  37  40 0
 6-311+G(2d,p)
 ****
 1  2  3  4  5  16  17  18  19  20  21  22  23  24 0
 3-21G
 ****
 26  27  29  30  31  38  39 41  42  43  44  45  46  47  48 0
 3-21G
 ****


