%nproc=1
%NoSave
%Mem=1900MB
#P OB98/GEN NMR

erre ene a

0 1
  C      397.909    -309.773     -11.551
  O      396.803    -310.240     -12.297
  H      398.088    -310.424     -10.693
  H      398.796    -309.780     -12.190
  H      397.728    -308.749     -11.211
  P      395.401    -310.343     -11.525
  C      394.673    -307.878     -11.868
  O      395.077    -308.878     -10.944
  C      393.308    -307.322     -11.467
  O      393.403    -306.811     -10.112
  C      392.787    -306.189     -12.369
  O      391.518    -306.544     -12.926
  C      392.585    -305.014     -11.422
  O      391.399    -304.271     -11.694
  C      392.537    -305.671     -10.049
  N      391.461    -301.259      -7.735
  C      390.686    -302.109      -8.444
  N      391.007    -303.322      -8.943
  C      392.271    -303.644      -8.625
  C      393.172    -302.895      -7.889
  C      392.730    -301.635      -7.451
  N      393.539    -300.746      -6.776
  N      394.385    -303.557      -7.777
  C      394.227    -304.667      -8.468
  N      392.973    -304.754      -9.014
  O      395.763    -311.194     -10.218
  O      394.295    -310.970     -12.305
  H      391.515    -303.872     -12.576
  H      395.107    -311.906     -10.099
  H      389.675    -301.768      -8.641
  H      394.993    -305.413      -8.642
  H      391.529    -306.022      -9.794
  H      393.445    -304.338     -11.510
  H      393.486    -305.932     -13.170
  H      392.590    -308.151     -11.449
  H      394.598    -308.314     -12.870
  H      393.175    -299.822      -6.605
  H      394.514    -300.976      -6.658
  H      395.425    -307.085     -11.888
  P      391.454    -306.708     -14.526
  C      391.252    -309.296     -14.357
  O      391.970    -308.186     -14.876
  O      392.653    -305.770     -15.028
  O      390.145    -306.316     -15.123
  H      392.470    -305.452     -15.933
  H      391.718    -310.204     -14.678
  H      390.244    -309.267     -14.714
  H      391.253    -309.253     -13.288

 6  7  8  9  10  11  12  13  14  15  25  28  32  33  34  35 0
 6-311+G(2d,p)
 ****
 36  39  40 0
 6-311+G(2d,p)
 ****
 1  2  3  4  5  16  17  18  19  20  21  22  23  24 0
 3-21G
 ****
 26  27  29  30  31  37  38  41  42  43  44  45  46  47  48 0
 3-21G
 ****


