%nproc=1
%NoSave
%Mem=1900MB
#P OB98/GEN NMR

erre ene a

0 1
  C     -120.855     228.171      55.254
  O     -121.453     229.416      55.619
  P     -120.758     230.783      55.152
  C     -119.350     231.236      57.262
  O     -119.332     230.908      55.880
  C     -118.282     232.292      57.586
  O     -118.397     232.726      58.974
  C     -116.853     231.760      57.397
  O     -115.979     232.810      56.956
  C     -116.447     231.382      58.808
  O     -115.027     231.313      58.947
  C     -117.123     232.494      59.608
  N     -115.083     232.745      64.302
  C     -114.678     233.256      63.117
  N     -115.286     233.169      61.913
  C     -116.433     232.477      62.009
  C     -116.979     231.906      63.149
  C     -116.246     232.053      64.340
  N     -116.644     231.506      65.538
  N     -118.169     231.266      62.858
  C     -118.312     231.411      61.556
  N     -117.310     232.164      61.004
  O     -121.614     232.002      55.226
  O     -120.341     230.466      53.634
  H     -114.673     232.196      58.746
  H     -120.532     231.248      53.082
  H     -113.741     233.807      63.139
  H     -119.113     230.985      60.967
  H     -116.554     233.429      59.561
  H     -116.864     230.397      59.064
  H     -116.772     230.918      56.703
  H     -118.450     233.174      56.960
  H     -119.177     230.336      57.856
  H     -115.998     231.564      66.311
  H     -117.424     230.865      65.548
  H     -120.353     231.587      57.535
  P     -115.929     233.065      55.364
  C     -113.916     231.483      54.840
  O     -115.298     231.736      54.731
  O     -115.275     234.354      54.987
  O     -117.479     232.993      54.973
  H     -117.951     232.210      55.307
  H     -113.708     230.479      54.462
  H     -113.589     231.535      55.883
  H     -113.351     232.203      54.239
  H     -121.442     227.366      55.643
  H     -119.866     228.119      55.658
  H     -120.809     228.096      54.188

 3  4  5  6  7  8  9  10  11  12  22  25  29  30  31  32 0
 6-311+G(2d,p)
 ****
 33  36  37 0
 6-311+G(2d,p)
 ****
 1  2  13  14  15  16  17  18  19  20  21  23  24  26 0
 3-21G
 ****
 27  28  34  35  38  39  40  41  42  43  44  45  46  47  48 0
 3-21G
 ****


