%nproc=1
%NoSave
%Mem=1900MB
#P OB98/GEN NMR

erre ene a

0 1
  C     -111.330     394.608    -177.982
  O     -112.209     395.463    -177.279
  H     -110.325     394.726    -177.573
  H     -111.306     394.868    -179.044
  H     -111.636     393.565    -177.861
  P     -113.740     395.536    -177.744
  C     -113.599     398.097    -178.087
  O     -114.241     397.021    -177.411
  C     -114.088     399.440    -177.548
  O     -115.489     399.616    -177.844
  C     -113.960     399.586    -176.034
  O     -112.617     399.818    -175.669
  C     -114.915     400.742    -175.788
  O     -114.303     401.999    -176.131
  C     -116.061     400.406    -176.773
  N     -117.177     399.704    -176.151
  C     -118.051     400.486    -175.387
  O     -117.851     401.695    -175.259
  N     -119.117     399.871    -174.777
  C     -119.323     398.601    -174.949
  N     -120.398     398.056    -174.321
  C     -118.446     397.748    -175.772
  C     -117.398     398.355    -176.328
  O     -114.638     394.450    -177.235
  O     -113.656     395.532    -179.342
  H     -113.478     402.046    -175.610
  H     -113.748     394.623    -179.687
  H     -118.658     396.697    -175.896
  H     -116.702     397.798    -176.951
  H     -116.451     401.323    -177.233
  H     -115.222     400.811    -174.743
  H     -114.357     398.698    -175.533
  H     -113.537     400.234    -178.067
  H     -120.981     398.686    -173.783
  H     -113.846     398.006    -179.150
  H     -120.742     397.127    -174.512
  H     -112.509     398.023    -177.980
  P     -111.937     399.051    -174.433
  C     -111.232     401.193    -173.202
  O     -110.792     400.031    -173.888
  O     -111.490     397.657    -174.722
  O     -113.045     399.139    -173.281
  H     -113.767     398.481    -173.447
  H     -110.384     401.765    -172.888
  H     -111.805     400.906    -172.345
  H     -111.839     401.785    -173.855

 6  7  8  9  10  11  12  13  14  15  16  26  30  31  32  33  35 0
 6-311+G(2d,p)
 ****
 37  38 0
 6-311+G(2d,p)
 ****
 1  2  3  4  5  17  18  19  20  21  22  23  24  25 0
 3-21G
 ****
 27  28  29  34  36  39  40  41  42  43  44  45  46 0
 3-21G
 ****


