%nproc=1
%NoSave
%Mem=1900MB
#P OB98/GEN NMR

erre ene a

0 1
  C       49.721     267.193     997.159
  O       48.627     267.953     997.663
  P       47.354     268.278     996.743
  C       46.231     266.015     997.222
  O       46.830     266.850     996.233
  C       44.742     265.845     996.923
  O       44.083     267.127     997.133
  C       44.382     265.451     995.491
  O       44.444     264.062     995.226
  C       42.935     265.914     995.414
  O       42.091     264.946     996.077
  C       42.961     267.228     996.216
  N       41.140     271.860     995.066
  C       40.766     270.943     995.985
  N       41.282     269.723     996.226
  C       42.338     269.495     995.401
  C       42.829     270.332     994.418
  C       42.181     271.570     994.260
  N       42.586     272.510     993.328
  N       43.895     269.740     993.765
  C       44.053     268.580     994.364
  N       43.134     268.390     995.365
  O       47.600     269.301     995.690
  O       46.226     268.730     997.784
  H       42.362     264.068     995.761
  H       45.506     269.192     997.322
  H       39.936     271.229     996.627
  H       44.799     267.838     994.112
  H       42.058     267.368     996.819
  H       42.565     266.012     994.385
  H       44.975     266.020     994.759
  H       44.318     265.131     997.630
  H       46.352     266.500     998.198
  H       42.142     273.409     993.363
  H       43.452     272.355     992.835
  H       46.728     265.050     997.242
  P       44.493     263.599     993.685
  C       46.994     264.324     993.409
  O       45.655     264.471     993.002
  O       43.178     263.639     992.993
  O       45.130     262.134     993.765
  H       46.070     262.098     994.056
  H       47.633     264.878     992.720
  H       47.294     263.273     993.383
  H       47.130     264.713     994.418
  H       50.464     267.087     997.922
  H       50.146     267.695     996.315
  H       49.376     266.225     996.861

 3  4  5  6  7  8  9  10  11  12  22  25  29  30  31  32 0
 6-311+G(2d,p)
 ****
 33  36  37 0
 6-311+G(2d,p)
 ****
 1  2  13  14  15  16  17  18  19  20  21  23  24  26 0
 3-21G
 ****
 27  28  34  35  38  39  40  41  42  43  44  45  46  47  48 0
 3-21G
 ****


