%nproc=1
%NoSave
%Mem=1900MB
#P OB98/GEN NMR

erre ene a

0 1
  C     -420.702     573.818     669.784
  O     -422.026     574.338     669.647
  P     -422.557     575.230     670.868
  C     -421.561     577.541     671.541
  O     -422.212     576.777     670.545
  C     -421.050     578.869     670.964
  O     -420.117     578.679     669.885
  C     -422.168     579.743     670.402
  O     -422.836     580.416     671.458
  C     -421.387     580.676     669.480
  O     -420.839     581.791     670.225
  C     -420.262     579.774     668.955
  N     -419.619     580.593     663.985
  C     -419.401     581.437     665.055
  N     -418.912     582.661     664.767
  N     -419.637     581.103     666.298
  C     -420.123     579.845     666.433
  C     -420.364     578.918     665.454
  C     -420.103     579.300     664.080
  O     -420.280     578.585     663.096
  N     -420.791     577.728     665.985
  C     -420.942     577.993     667.268
  N     -420.478     579.239     667.602
  O     -421.567     574.852     672.068
  O     -423.990     574.964     671.234
  H     -420.289     582.336     669.623
  H     -422.044     574.341     672.747
  H     -419.434     580.916     663.034
  H     -421.343     577.295     668.012
  H     -419.305     580.304     668.916
  H     -422.033     581.120     668.706
  H     -418.703     582.991     663.835
  H     -422.867     579.131     669.823
  H     -418.730     583.292     665.547
  H     -420.540     579.407     671.775
  H     -420.720     576.970     671.957
  H     -422.264     577.716     672.368
  P     -424.328     579.962     671.815
  C     -424.502     577.720     673.129
  O     -424.267     579.125     673.172
  O     -424.654     578.854     670.692
  O     -425.345     581.072     671.789
  H     -425.560     579.004     670.348
  H     -423.947     577.237     673.943
  H     -424.194     577.289     672.177
  H     -425.581     577.541     673.285
  H     -420.453     573.242     668.917
  H     -420.652     573.195     670.652
  H     -420.010     574.627     669.885

 3  4  5  6  7  8  9  10  11  12  23  26  30  31 0
 6-311+G(2d,p)
 ****
 33  35  36  37  38 0
 6-311+G(2d,p)
 ****
 1  2  13  14  15  16  17  18  19  20  21  22  24  25 0
 3-21G
 ****
 27  28  29  32  34  39  40  41  42  43  44  45  46  47  48  49 0
 3-21G
 ****


