%nproc=1
%NoSave
%Mem=1900MB
#P OB98/GEN NMR

erre ene a

0 1
  C     -162.708    -191.961    -183.298
  O     -163.216    -193.095    -183.971
  H     -161.717    -191.730    -183.698
  H     -162.614    -192.175    -182.231
  H     -163.360    -191.096    -183.451
  P     -164.746    -193.480    -183.678
  C     -165.750    -192.463    -185.846
  O     -165.644    -192.383    -184.432
  C     -166.987    -191.707    -186.326
  O     -166.873    -190.303    -186.003
  C     -167.220    -191.781    -187.829
  O     -167.882    -192.981    -188.204
  C     -168.119    -190.574    -188.032
  O     -169.461    -190.887    -187.600
  C     -167.485    -189.547    -187.085
  N     -166.646    -185.889    -190.494
  C     -167.824    -186.513    -190.133
  N     -168.940    -186.110    -190.778
  N     -167.906    -187.451    -189.225
  C     -166.709    -187.758    -188.670
  C     -165.476    -187.210    -188.941
  C     -165.403    -186.171    -189.941
  O     -164.387    -185.569    -190.282
  N     -164.495    -187.775    -188.167
  C     -165.132    -188.674    -187.440
  N     -166.476    -188.710    -187.713
  O     -164.933    -193.106    -182.131
  O     -165.110    -194.902    -183.940
  H     -169.787    -191.595    -188.186
  H     -165.535    -193.756    -181.720
  H     -166.637    -185.182    -191.208
  H     -164.666    -189.320    -186.709
  H     -168.227    -188.875    -186.640
  H     -168.185    -190.266    -189.076
  H     -168.940    -185.430    -191.524
  H     -166.290    -191.640    -188.391
  H     -169.821    -186.529    -190.509
  H     -167.854    -192.100    -185.780
  H     -165.832    -193.516    -186.141
  H     -164.849    -192.035    -186.294
  P     -167.033    -194.078    -189.019
  C     -168.385    -196.113    -188.134
  O     -167.136    -195.429    -188.160
  O     -165.521    -193.607    -188.782
  O     -167.369    -194.187    -190.465
  H     -164.949    -193.950    -189.498
  H     -168.299    -196.989    -187.525
  H     -168.658    -196.396    -189.129
  H     -169.136    -195.468    -187.728

 6  7  8  9  10  11  12  13  14  15  26  29  33  34 0
 6-311+G(2d,p)
 ****
 36  38  39  40  41 0
 6-311+G(2d,p)
 ****
 1  2  3  4  5  16  17  18  19  20  21  22  23  24  25 0
 3-21G
 ****
 27  28  30  31  32  35  37  42  43  44  45  46  47 0
 3-21G
 ****
 48  49 0
 3-21G
 ****


