%nproc=1
%NoSave
%Mem=1900MB
#P OB98/GEN NMR

erre ene a

0 1
  C      249.196      -5.986     252.519
  O      250.270      -6.239     251.635
  H      248.345      -6.607     252.222
  H      248.895      -4.936     252.478
  H      249.480      -6.252     253.541
  P      251.547      -5.268     251.701
  C      251.940      -6.281     254.045
  O      251.869      -5.088     253.266
  C      253.327      -6.442     254.673
  O      254.293      -6.795     253.662
  C      253.863      -5.170     255.309
  O      253.177      -4.775     256.478
  C      255.360      -5.439     255.368
  O      255.760      -6.156     256.532
  C      255.577      -6.316     254.112
  N      256.291      -5.602     253.062
  C      257.582      -5.190     253.379
  O      258.105      -5.380     254.476
  N      258.245      -4.504     252.399
  C      257.736      -4.156     251.182
  O      258.369      -3.502     250.364
  C      256.358      -4.596     250.914
  C      255.707      -5.290     251.851
  O      251.419      -3.973     250.957
  O      252.750      -6.187     251.189
  H      255.330      -7.032     256.491
  H      253.531      -5.641     250.932
  H      259.184      -4.206     252.608
  H      255.919      -4.335     249.960
  H      254.688      -5.626     251.678
  H      256.164      -7.207     254.370
  H      255.934      -4.509     255.351
  H      253.728      -4.350     254.592
  H      253.282      -7.260     255.400
  H      251.748      -7.126     253.377
  H      251.169      -6.262     254.820
  P      253.231      -3.289     257.067
  C      250.732      -2.809     256.543
  O      252.088      -2.422     256.344
  O      254.587      -2.684     257.242
  O      252.609      -3.512     258.539
  H      253.057      -2.891     259.145
  H      250.089      -2.145     256.004
  H      250.498      -2.765     257.586
  H      250.591      -3.808     256.188

 6  7  8  9  10  11  12  13  14  15  16  26  31  32  33  34  35 0
 6-311+G(2d,p)
 ****
 36  37 0
 6-311+G(2d,p)
 ****
 1  2  3  4  5  17  18  19  20  21  22  23  24  25 0
 3-21G
 ****
 27  28  29  30  38  39  40  41  42  43  44  45 0
 3-21G
 ****


