%nproc=1
%NoSave
%Mem=1900MB
#P OB98/GEN NMR

erre ene a

0 1
  C     -305.274      61.330     -39.529
  O     -305.440      60.369     -38.480
  P     -304.529      60.544     -37.169
  C     -305.730      61.830     -35.234
  O     -305.551      60.607     -35.928
  C     -307.116      61.885     -34.572
  O     -308.151      61.707     -35.588
  C     -307.343      60.825     -33.490
  O     -308.134      61.444     -32.458
  C     -308.151      59.761     -34.208
  O     -308.886      58.948     -33.305
  C     -309.008      60.641     -35.131
  N     -309.578      59.889     -36.251
  C     -310.813      59.277     -36.036
  O     -311.379      59.278     -34.946
  N     -311.346      58.625     -37.114
  C     -310.747      58.451     -38.332
  O     -311.273      57.857     -39.260
  C     -309.392      59.022     -38.459
  C     -308.881      59.705     -37.428
  O     -304.010      62.047     -37.338
  O     -303.453      59.512     -37.062
  H     -304.681      62.644     -37.719
  H     -309.608      59.482     -32.909
  H     -312.254      58.199     -36.990
  H     -308.861      58.857     -39.389
  H     -307.881      60.117     -37.485
  H     -309.830      61.096     -34.566
  H     -307.486      59.116     -34.795
  H     -306.408      60.446     -33.053
  H     -307.249      62.888     -34.145
  H     -305.640      62.671     -35.930
  H     -304.933      61.946     -34.486
  P     -307.420      61.779     -31.052
  C     -306.068      63.956     -31.602
  O     -307.201      63.366     -31.000
  O     -305.945      61.217     -31.345
  O     -308.055      61.143     -29.855
  H     -305.592      61.505     -32.202
  H     -306.228      65.036     -31.670
  H     -305.910      63.566     -32.613
  H     -305.179      63.761     -30.992
  H     -305.937      61.096     -40.335
  H     -304.263      61.304     -39.879
  H     -305.497      62.308     -39.156

 3  4  5  6  7  8  9  10  11  12  13  24  28  29  30  31  32 0
 6-311+G(2d,p)
 ****
 33  34 0
 6-311+G(2d,p)
 ****
 1  2  14  15  16  17  18  19  20  21  22  23  25  26  27 0
 3-21G
 ****
 35  36  37  38  39  40  41  42  43  44  45 0
 3-21G
 ****


