%nproc=1
%NoSave
%Mem=1900MB
#P OB98/GEN NMR

erre ene a

0 1
  C      113.532      73.929     132.983
  O      112.571      72.929     132.699
  P      111.214      72.906     133.554
  C      112.509      71.960     135.636
  O      111.648      72.947     135.098
  C      111.764      71.108     136.668
  O      112.671      70.096     137.186
  C      111.222      71.895     137.869
  O      109.982      71.284     138.251
  C      112.282      71.662     138.930
  O      111.792      71.865     140.247
  C      112.681      70.214     138.621
  N      113.992      69.845     139.157
  C      114.126      69.747     140.538
  O      113.216      69.973     141.332
  N      115.374      69.402     140.991
  C      116.487      69.216     140.223
  O      117.583      68.927     140.685
  C      116.294      69.380     138.776
  C      115.077      69.672     138.318
  O      110.728      71.401     133.325
  O      110.233      73.954     133.153
  H      111.465      70.768     133.272
  H      111.236      71.101     140.483
  H      115.486      69.290     141.989
  H      117.158      69.255     138.134
  H      114.910      69.799     137.254
  H      111.921      69.525     139.007
  H      113.118      72.351     138.767
  H      111.061      72.953     137.639
  H      110.948      70.583     136.155
  H      113.359      72.445     136.121
  H      112.897      71.337     134.821
  P      108.649      72.185     138.208
  C      108.433      72.014     140.811
  O      108.456      72.827     139.661
  O      107.531      71.032     138.177
  O      108.554      73.114     137.042
  H      107.675      70.348     138.851
  H      108.632      72.635     141.687
  H      109.193      71.229     140.760
  H      107.445      71.559     140.918
  H      114.373      73.810     132.333
  H      113.852      73.838     134.000
  H      113.097      74.895     132.831

 3  4  5  6  7  8  9  10  11  12  13  24  28  29  30  31  32 0
 6-311+G(2d,p)
 ****
 33  34 0
 6-311+G(2d,p)
 ****
 1  2  14  15  16  17  18  19  20  21  22  23  25  26  27 0
 3-21G
 ****
 35  36  37  38  39  40  41  42  43  44  45 0
 3-21G
 ****


