%nproc=1
%NoSave
%Mem=1900MB
#P OB98/GEN NMR

erre ene a

0 1
  C      -39.960     -63.897      46.747
  O      -40.726     -62.847      47.307
  H      -40.131     -64.805      47.334
  H      -38.894     -63.659      46.770
  H      -40.279     -64.082      45.717
  P      -40.439     -61.350      46.801
  C      -38.574     -59.618      47.222
  O      -39.137     -60.867      47.615
  C      -37.047     -59.690      47.176
  O      -36.611     -60.734      46.279
  C      -36.379     -58.426      46.653
  O      -36.514     -57.299      47.488
  C      -34.987     -58.930      46.301
  O      -34.126     -58.987      47.439
  C      -35.299     -60.362      45.801
  N      -35.201     -60.476      44.349
  C      -33.914     -60.507      43.825
  O      -32.896     -60.421      44.514
  N      -33.827     -60.606      42.462
  C      -34.879     -60.629      41.593
  O      -34.732     -60.698      40.377
  C      -36.215     -60.554      42.202
  C      -36.316     -60.484      43.534
  O      -41.598     -60.403      46.892
  O      -39.884     -61.547      45.315
  H      -34.464     -59.698      48.016
  H      -39.902     -60.696      44.810
  H      -32.901     -60.645      42.064
  H      -37.072     -60.557      41.542
  H      -37.293     -60.430      44.008
  H      -34.594     -61.081      46.244
  H      -34.498     -58.301      45.555
  H      -36.858     -58.154      45.703
  H      -36.689     -59.944      48.179
  H      -38.876     -58.867      47.960
  H      -38.969     -59.332      46.241
  P      -36.077     -55.825      47.066
  C      -33.850     -54.733      46.230
  O      -34.477     -55.774      46.972
  O      -36.778     -54.695      47.748
  O      -36.503     -55.793      45.506
  H      -36.788     -54.879      45.305
  H      -32.788     -54.853      46.274
  H      -34.119     -53.785      46.648
  H      -34.172     -54.778      45.211

 6  7  8  9  10  11  12  13  14  15  16  26  31  32  33  34  35 0
 6-311+G(2d,p)
 ****
 36  37 0
 6-311+G(2d,p)
 ****
 1  2  3  4  5  17  18  19  20  21  22  23  24  25 0
 3-21G
 ****
 27  28  29  30  38  39  40  41  42  43  44  45 0
 3-21G
 ****


