%nproc=1
%NoSave
%Mem=1900MB
#P OB98/GEN NMR

erre ene a

0 1
  C     -350.351     438.418     641.678
  O     -349.363     438.780     640.731
  H     -350.804     439.332     642.078
  H     -349.905     437.853     642.507
  H     -351.130     437.821     641.197
  P     -348.428     437.636     640.107
  C     -346.608     437.854     641.926
  O     -347.602     437.006     641.338
  C     -345.885     437.119     643.069
  O     -344.761     437.930     643.496
  C     -346.787     436.868     644.292
  O     -346.442     435.594     644.847
  C     -346.384     437.977     645.242
  O     -346.667     437.658     646.586
  C     -344.890     438.163     644.910
  N     -344.426     439.501     645.287
  C     -343.475     439.559     646.316
  O     -343.052     438.520     646.833
  N     -343.051     440.774     646.774
  C     -343.591     441.861     646.292
  N     -343.168     443.041     646.818
  C     -344.626     441.846     645.234
  C     -344.999     440.644     644.780
  O     -347.602     438.027     638.930
  O     -349.463     436.466     639.740
  H     -346.459     438.432     647.150
  H     -349.774     436.577     638.822
  H     -345.048     442.783     644.866
  H     -345.753     440.547     644.011
  H     -344.287     437.413     645.435
  H     -346.942     438.900     644.991
  H     -347.856     436.897     644.059
  H     -345.481     436.177     642.679
  H     -342.481     443.005     647.548
  H     -347.118     438.737     642.321
  H     -343.538     443.955     646.538
  H     -345.885     438.156     641.166
  P     -347.210     434.264     644.370
  C     -349.460     434.491     645.576
  O     -348.794     434.552     644.313
  O     -346.832     433.023     645.116
  O     -346.808     434.122     642.821
  H     -346.799     433.184     642.573
  H     -350.502     434.694     645.440
  H     -349.038     435.219     646.237
  H     -349.339     433.514     645.996

 6  7  8  9  10  11  12  13  14  15  16  26  30  31  32  33  35 0
 6-311+G(2d,p)
 ****
 37  38 0
 6-311+G(2d,p)
 ****
 1  2  3  4  5  17  18  19  20  21  22  23  24  25 0
 3-21G
 ****
 27  28  29  34  36  39  40  41  42  43  44  45  46 0
 3-21G
 ****


