%nproc=1
%NoSave
%Mem=1900MB
#P OB98/GEN NMR

erre ene a

0 1
  C       -6.781    -233.420     -14.716
  O       -8.004    -233.337     -15.413
  H       -6.619    -234.460     -14.417
  H       -6.829    -232.801     -13.814
  H       -5.941    -233.099     -15.337
  P       -8.280    -232.057     -16.333
  C       -9.741    -230.687     -14.702
  O       -8.485    -230.792     -15.362
  C      -10.244    -229.243     -14.654
  O       -9.366    -228.435     -13.836
  C      -10.257    -228.587     -16.036
  O      -11.408    -228.848     -16.821
  C      -10.163    -227.106     -15.678
  O      -11.463    -226.561     -15.402
  C       -9.304    -227.118     -14.409
  N       -5.994    -223.424     -15.643
  C       -7.372    -223.367     -15.573
  N       -7.942    -222.197     -15.934
  N       -8.117    -224.376     -15.202
  C       -7.415    -225.512     -14.963
  C       -6.050    -225.692     -15.015
  C       -5.229    -224.552     -15.374
  O       -4.004    -224.551     -15.456
  N       -5.700    -226.985     -14.704
  C       -6.855    -227.601     -14.541
  N       -7.924    -226.743     -14.664
  O       -9.764    -232.307     -16.892
  O       -7.309    -231.854     -17.457
  H      -11.945    -226.476     -16.244
  H       -9.880    -231.847     -17.743
  H       -5.469    -222.608     -15.910
  H       -6.972    -228.654     -14.311
  H       -9.694    -226.421     -13.655
  H       -9.742    -226.517     -16.500
  H       -7.420    -221.433     -16.336
  H       -9.358    -228.863     -16.599
  H       -8.942    -222.198     -16.150
  H      -11.235    -229.221     -14.187
  H       -9.595    -231.066     -13.687
  H      -10.479    -231.333     -15.186
  P      -11.282    -228.965     -18.413
  C      -12.001    -226.472     -18.639
  O      -11.072    -227.477     -18.978
  O      -12.778    -229.333     -18.860
  O      -10.294    -229.972     -18.895
  H      -12.863    -230.298     -18.977
  H      -11.711    -225.549     -19.097
  H      -12.024    -226.351     -17.576
  H      -12.973    -226.753     -18.987

 6  7  8  9  10  11  12  13  14  15  26  29  33  34 0
 6-311+G(2d,p)
 ****
 36  38  39  40  41 0
 6-311+G(2d,p)
 ****
 1  2  3  4  5  16  17  18  19  20  21  22  23  24  25 0
 3-21G
 ****
 27  28  30  31  32  35  37  42  43  44  45  46  47 0
 3-21G
 ****
 48  49 0
 3-21G
 ****


