%nproc=1
%NoSave
%Mem=1900MB
#P OB98/GEN NMR

erre ene a

0 1
  C       55.603    -112.642     269.896
  O       56.709    -112.009     270.553
  P       58.051    -112.858     270.758
  C       60.282    -113.061     269.436
  O       58.885    -112.811     269.390
  C       60.921    -112.758     268.077
  O       60.406    -113.622     267.039
  C       60.678    -111.335     267.591
  O       61.600    -110.418     268.167
  C       60.957    -111.482     266.103
  O       62.381    -111.465     265.868
  C       60.378    -112.869     265.799
  N       57.292    -114.399     262.095
  C       58.632    -114.657     262.300
  N       59.241    -115.445     261.384
  N       59.318    -114.186     263.308
  C       58.578    -113.429     264.150
  C       57.243    -113.100     264.056
  C       56.500    -113.617     262.927
  O       55.313    -113.411     262.687
  N       56.849    -112.304     265.099
  C       57.934    -112.166     265.835
  N       59.016    -112.816     265.295
  O       57.514    -114.369     270.793
  O       58.812    -112.515     271.996
  H       62.514    -111.751     264.945
  H       58.115    -114.921     271.325
  H       56.814    -114.784     261.297
  H       57.986    -111.612     266.765
  H       60.974    -113.420     265.063
  H       60.530    -110.663     265.517
  H       58.763    -115.884     260.614
  H       59.636    -111.033     267.752
  H       60.215    -115.671     261.536
  H       62.002    -112.928     268.164
  H       60.474    -114.102     269.711
  H       60.726    -112.457     270.232
  P       61.005    -109.175     268.988
  C       58.993    -109.054     270.624
  O       60.088    -109.802     270.141
  O       59.955    -108.539     267.961
  O       62.020    -108.176     269.430
  H       59.898    -107.573     268.094
  H       58.393    -109.693     271.278
  H       58.364    -108.705     269.800
  H       59.350    -108.197     271.204
  H       54.785    -111.955     269.833
  H       55.303    -113.504     270.454
  H       55.896    -112.939     268.911

 3  4  5  6  7  8  9  10  11  12  23  26  30  31 0
 6-311+G(2d,p)
 ****
 33  35  36  37  38 0
 6-311+G(2d,p)
 ****
 1  2  13  14  15  16  17  18  19  20  21  22  24  25 0
 3-21G
 ****
 27  28  29  32  34  39  40  41  42  43  44  45  46  47  48  49 0
 3-21G
 ****


