%nproc=1
%NoSave
%Mem=1900MB
#P OB98/GEN NMR

erre ene a

0 1
  C       57.139     671.451     414.514
  O       58.171     672.396     414.835
  P       59.589     671.777     415.300
  C       60.979     673.341     413.743
  O       60.699     672.903     415.070
  C       62.051     674.420     413.744
  O       61.486     675.712     414.053
  C       63.153     674.215     414.790
  O       64.115     673.265     414.343
  C       63.752     675.604     414.857
  O       64.701     675.779     413.764
  C       62.523     676.530     414.642
  N       63.797     678.325     419.192
  C       64.593     677.834     418.194
  N       65.948     677.867     418.423
  N       64.143     677.384     417.052
  C       62.784     677.442     416.954
  C       61.887     677.909     417.903
  C       62.407     678.390     419.147
  O       61.749     678.804     420.095
  N       60.599     677.835     417.431
  C       60.706     677.344     416.213
  N       62.027     677.080     415.875
  O       59.915     670.708     414.141
  O       59.557     671.140     416.658
  H       65.508     675.262     413.994
  H       60.478     669.994     414.481
  H       64.213     678.679     420.053
  H       59.896     677.171     415.531
  H       62.759     677.337     413.948
  H       64.301     675.795     415.777
  H       66.361     678.268     419.228
  H       62.720     673.956     415.752
  H       66.536     677.541     417.661
  H       62.490     674.461     412.737
  H       60.070     673.720     413.278
  H       61.288     672.462     413.156
  P       64.083     671.811     415.050
  C       64.784     670.978     412.674
  O       64.937     670.870     414.079
  O       62.577     671.341     414.802
  O       64.446     671.805     416.480
  H       62.291     670.732     415.496
  H       64.742     672.043     412.375
  H       63.857     670.474     412.377
  H       65.636     670.505     412.178
  H       56.253     671.976     414.222
  H       56.929     670.847     415.372
  H       57.465     670.826     413.709

 3  4  5  6  7  8  9  10  11  12  23  26  30  31  33  0
 6-311+G(2d,p)
 ****
 35  36  37  38 0
 6-311+G(2d,p)
 ****
 1  2  13  14  15  16  17  18  19  20  21  22  24  25  27  28  29 0
 3-21G
 ****
 32  34  39  40  41  42  43  44  45  46  47  48  49 0
 3-21G
 ****


