%nproc=1
%NoSave
%Mem=1900MB
#P OB98/GEN NMR

erre ene a

0 1
  C      -13.819      18.420     163.928
  O      -14.933      18.430     163.055
  H      -13.092      19.155     163.576
  H      -13.351      17.432     163.929
  H      -14.133      18.689     164.939
  P      -16.133      17.429     163.416
  C      -14.640      15.584     162.380
  O      -15.436      15.986     163.488
  C      -14.745      14.077     162.166
  O      -14.175      13.366     163.279
  C      -16.172      13.560     162.032
  O      -16.663      13.765     160.717
  C      -15.968      12.084     162.333
  O      -15.457      11.414     161.164
  C      -14.890      12.112     163.433
  N      -15.263       9.138     167.599
  C      -14.846       8.874     166.343
  N      -14.814       9.700     165.276
  C      -15.276      10.918     165.602
  C      -15.735      11.334     166.843
  C      -15.710      10.384     167.877
  N      -16.127      10.661     169.161
  N      -16.132      12.654     166.799
  C      -15.865      13.043     165.569
  N      -15.380      12.019     164.795
  O      -17.346      17.536     162.559
  O      -16.362      17.774     164.964
  H      -15.289      10.485     161.408
  H      -15.511      17.932     165.408
  H      -14.487       7.863     166.170
  H      -15.988      14.052     165.195
  H      -14.163      11.302     163.308
  H      -16.898      11.582     162.605
  H      -16.829      13.993     162.793
  H      -14.152      13.822     161.279
  H      -13.594      15.867     162.540
  H      -16.237       9.883     169.792
  H      -16.574      11.549     169.333
  H      -15.011      16.118     161.500
  P      -18.169      14.256     160.475
  C      -18.815      11.806     160.043
  O      -19.114      12.992     160.769
  O      -18.413      14.921     159.165
  O      -18.477      15.231     161.703
  H      -19.018      15.988     161.408
  H      -19.505      11.036     160.318
  H      -17.818      11.490     160.271
  H      -18.897      12.000     158.994

 6  7  8  9  10  11  12  13  14  15  25  28  32  33  34  35 0
 6-311+G(2d,p)
 ****
 36  39  40 0
 6-311+G(2d,p)
 ****
 1  2  3  4  5  16  17  18  19  20  21  22  23  24 0
 3-21G
 ****
 26  27  29  30  31  37  38  41  42  43  44  45  46  47 0
 3-21G
 ****
 48 0
 3-21G
 ****


