%nproc=1
%NoSave
%Mem=1900MB
#P OB98/GEN NMR

erre ene a

0 1
  C     -197.793      -8.195    -161.388
  O     -197.878      -9.358    -162.185
  H     -198.082      -8.448    -160.365
  H     -198.471      -7.426    -161.767
  H     -196.768      -7.818    -161.382
  P     -197.549      -9.194    -163.746
  C     -195.113      -8.747    -162.963
  O     -196.168      -8.382    -163.840
  C     -193.776      -8.348    -163.578
  O     -192.707      -8.597    -162.635
  C     -193.406      -9.136    -164.826
  O     -194.091      -8.675    -165.976
  C     -191.909      -8.886    -164.892
  O     -191.612      -7.637    -165.536
  C     -191.511      -8.848    -163.400
  N     -190.840     -10.074    -162.977
  C     -189.478      -9.956    -162.719
  O     -188.858      -8.897    -162.834
  N     -188.835     -11.109    -162.361
  C     -189.402     -12.347    -162.273
  O     -188.756     -13.354    -162.017
  C     -190.849     -12.407    -162.543
  C     -191.490     -11.286    -162.887
  O     -198.647      -8.137    -164.238
  O     -197.588     -10.457    -164.537
  H     -199.360      -8.599    -164.718
  H     -191.857      -7.750    -166.475
  H     -187.845     -11.046    -162.181
  H     -191.332     -13.374    -162.477
  H     -192.554     -11.312    -163.110
  H     -190.833      -8.008    -163.208
  H     -191.396      -9.663    -165.458
  H     -193.578     -10.208    -164.664
  H     -193.800      -7.271    -163.792
  H     -195.127      -9.830    -162.807
  H     -195.263      -8.251    -161.998
  P     -193.832      -9.421    -167.373
  C     -195.142     -11.496    -166.432
  O     -193.990     -10.993    -167.085
  O     -192.257      -9.215    -167.546
  O     -194.664      -8.902    -168.495
  H     -191.774      -9.246    -166.704
  H     -195.061     -12.558    -166.333
  H     -196.011     -11.257    -167.008
  H     -195.224     -11.053    -165.462

 6  7  8  9  10  11  12  13  14  15  16  27  31  32  33  34  35 0
 6-311+G(2d,p)
 ****
 36  37 0
 6-311+G(2d,p)
 ****
 1  2  3  4  5  17  18  19  20  21  22  23  24  25 0
 3-21G
 ****
 26  28  29  30  38  39  40  41  42  43  44  45 0
 3-21G
 ****


