%nproc=1
%NoSave
%Mem=1900MB
#P OB98/GEN NMR

erre ene a

0 1
  C      128.676      64.784    -178.046
  O      129.426      64.185    -177.011
  H      127.936      65.453    -177.603
  H      128.156      64.009    -178.612
  H      129.321      65.364    -178.715
  P      130.811      63.485    -177.418
  C      132.598      65.338    -177.752
  O      131.986      64.426    -176.854
  C      134.037      65.632    -177.319
  O      134.697      66.385    -178.382
  C      134.146      66.453    -176.023
  O      135.282      65.994    -175.281
  C      134.450      67.850    -176.535
  O      135.102      68.655    -175.561
  C      135.313      67.522    -177.753
  N      137.341      72.092    -178.216
  C      137.571      71.100    -177.283
  N      138.432      71.382    -176.283
  N      137.001      69.921    -177.330
  C      136.179      69.759    -178.396
  C      135.863      70.668    -179.380
  C      136.487      71.971    -179.309
  O      136.309      72.899    -180.094
  N      134.940      70.144    -180.250
  C      134.682      68.934    -179.776
  N      135.410      68.658    -178.650
  O      130.869      63.718    -179.002
  O      130.926      62.038    -177.067
  H      135.953      68.225    -175.331
  H      130.512      62.939    -179.465
  H      137.791      72.984    -178.128
  H      133.970      68.235    -180.195
  H      136.341      67.247    -177.473
  H      133.520      68.349    -176.835
  H      138.930      72.254    -176.199
  H      133.252      66.412    -175.394
  H      138.636      70.649    -175.615
  H      134.574      64.679    -177.223
  H      132.029      66.273    -177.758
  H      132.583      64.913    -178.763
  P      135.164      64.590    -174.506
  C      136.585      62.997    -175.988
  O      136.491      63.737    -174.780
  O      134.043      63.814    -175.348
  O      134.770      64.724    -173.073
  H      133.509      63.255    -174.756
  H      137.524      62.485    -176.021
  H      136.513      63.664    -176.821
  H      135.789      62.284    -176.032

 6  7  8  9  10  11  12  13  14  15  26  29  33  34 0
 6-311+G(2d,p)
 ****
 36  38  39  40  41 0
 6-311+G(2d,p)
 ****
 1  2  3  4  5  16  17  18  19  20  21  22  23  24  25 0
 3-21G
 ****
 27  28  30  31  32  35  37  42  43  44  45  46  47 0
 3-21G
 ****
 48  49 0
 3-21G
 ****


