%nproc=1
%NoSave
%Mem=1900MB
#P OB98/GEN NMR

erre ene a

0 1
  C     -967.299    1037.372     -80.790
  O     -966.698    1036.711     -79.681
  P     -965.436    1035.738     -79.879
  C     -966.993    1033.709     -79.644
  O     -966.051    1034.381     -80.473
  C     -966.527    1032.273     -79.374
  O     -966.332    1031.603     -80.639
  C     -965.186    1032.144     -78.646
  O     -965.279    1032.235     -77.231
  C     -964.800    1030.722     -79.032
  O     -965.525    1029.784     -78.225
  C     -965.261    1030.645     -80.491
  N     -961.201    1028.757     -82.972
  C     -962.081    1028.192     -82.115
  N     -963.125    1028.772     -81.475
  C     -963.243    1030.049     -81.841
  C     -962.440    1030.765     -82.705
  C     -961.377    1030.064     -83.299
  N     -960.493    1030.645     -84.191
  N     -962.871    1032.081     -82.813
  C     -963.931    1032.140     -82.038
  N     -964.208    1030.939     -81.446
  O     -964.578    1035.591     -78.662
  O     -964.663    1036.360     -81.129
  H     -965.226    1028.886     -78.478
  H     -963.733    1036.004     -81.159
  H     -961.914    1027.136     -81.907
  H     -964.530    1033.031     -81.882
  H     -965.673    1029.658     -80.745
  H     -963.734    1030.517     -78.887
  H     -964.447    1032.840     -79.051
  H     -967.323    1031.753     -78.830
  H     -967.948    1033.667     -80.183
  H     -959.834    1030.020     -84.659
  H     -960.711    1031.559     -84.557
  H     -967.147    1034.254     -78.719
  P     -964.014    1032.879     -76.456
  C     -962.596    1030.688     -76.465
  O     -962.745    1032.021     -76.904
  O     -964.214    1033.041     -75.000
  O     -963.808    1034.270     -77.234
  H     -963.515    1034.197     -78.157
  H     -961.760    1030.226     -76.996
  H     -963.504    1030.103     -76.668
  H     -962.372    1030.665     -75.392
  H     -968.119    1037.969     -80.448
  H     -967.655    1036.644     -81.489
  H     -966.575    1038.000     -81.266

 3  4  5  6  7  8  9  10  11  12  22  25  29  30  31  32 0
 6-311+G(2d,p)
 ****
 33  36  37 0
 6-311+G(2d,p)
 ****
 1  2  13  14  15  16  17  18  19  20  21  23  24  26 0
 3-21G
 ****
 27  28  34  35  38  39  40  41  42  43  44  45  46  47  48 0
 3-21G
 ****


