%nproc=1
%NoSave
%Mem=1900MB
#P OB98/GEN NMR

erre ene a

0 1
  C       20.862     -19.930     -86.159
  O       21.914     -18.963     -86.166
  P       21.463     -17.437     -86.377
  C       21.995     -17.134     -88.896
  O       20.991     -17.279     -87.904
  C       21.552     -16.156     -89.990
  O       20.409     -16.689     -90.724
  C       21.138     -14.777     -89.452
  O       21.538     -13.814     -90.435
  C       19.624     -14.899     -89.400
  O       18.965     -13.648     -89.287
  C       19.382     -15.675     -90.689
  N       15.074     -15.870     -93.412
  C       16.216     -15.168     -93.577
  N       17.321     -15.168     -92.803
  C       17.168     -16.009     -91.766
  C       16.063     -16.789     -91.463
  C       14.972     -16.699     -92.345
  N       13.797     -17.392     -92.174
  N       16.276     -17.507     -90.296
  C       17.461     -17.102     -89.875
  N       18.067     -16.266     -90.768
  O       22.842     -16.629     -86.315
  O       20.478     -16.959     -85.364
  H       17.996     -13.779     -89.322
  H       22.965     -16.231     -85.434
  H       16.244     -14.516     -94.446
  H       17.921     -17.382     -88.937
  H       19.507     -15.045     -91.580
  H       19.339     -15.500     -88.528
  H       21.597     -14.524     -88.493
  H       22.376     -16.044     -90.706
  H       22.216     -18.102     -89.351
  H       13.069     -17.257     -92.858
  H       13.678     -18.011     -91.386
  H       22.923     -16.801     -88.419
  P       22.625     -12.704     -90.033
  C       20.709     -11.555     -88.775
  O       22.038     -12.032     -88.699
  O       22.304     -11.571     -91.120
  O       24.048     -13.149     -90.014
  H       21.352     -11.371     -91.149
  H       20.408     -11.199     -87.786
  H       20.035     -12.358     -89.083
  H       20.650     -10.724     -89.483
  H       21.276     -20.906     -86.012
  H       20.343     -19.899     -87.094
  H       20.179     -19.709     -85.365

 3  4  5  6  7  8  9  10  11  12  22  25  29  30  31  32 0
 6-311+G(2d,p)
 ****
 33  36  37 0
 6-311+G(2d,p)
 ****
 1  2  13  14  15  16  17  18  19  20  21  23  24  26 0
 3-21G
 ****
 27  28  34  35  38  39  40  41  42  43  44  45  46  47  48 0
 3-21G
 ****


