%nproc=1
%NoSave
%Mem=1900MB
#P OB98/GEN NMR

erre ene a

0 1
  C     -388.152     -22.566     -98.566
  O     -387.823     -21.207     -98.284
  P     -386.578     -20.568     -99.064
  C     -388.043     -19.353    -100.879
  O     -387.097     -19.254     -99.823
  C     -389.029     -18.167    -100.847
  O     -389.885     -18.309     -99.688
  C     -388.387     -16.789    -100.719
  O     -389.330     -15.803    -101.128
  C     -388.173     -16.692     -99.220
  O     -387.967     -15.344     -98.804
  C     -389.437     -17.385     -98.658
  N     -389.207     -18.106     -97.394
  C     -389.780     -17.599     -96.219
  O     -390.471     -16.578     -96.184
  N     -389.502     -18.282     -95.064
  C     -388.755     -19.419     -94.968
  O     -388.465     -19.945     -93.897
  C     -388.291     -19.986     -96.239
  C     -388.520     -19.314     -97.369
  O     -386.294     -21.613    -100.237
  O     -385.378     -20.344     -98.199
  H     -388.857     -14.919     -98.788
  H     -385.495     -22.138    -100.040
  H     -389.854     -17.888     -94.204
  H     -387.746     -20.933     -96.210
  H     -388.163     -19.713     -98.321
  H     -390.238     -16.657     -98.477
  H     -387.276     -17.261     -98.935
  H     -387.451     -16.663    -101.271
  H     -389.665     -18.213    -101.748
  H     -388.584     -20.303    -100.805
  H     -387.517     -19.370    -101.841
  P     -389.603     -15.621    -102.699
  C     -391.018     -17.232    -104.123
  O     -390.998     -16.357    -103.007
  O     -388.469     -15.978    -103.606
  O     -389.995     -14.074    -102.823
  H     -389.887     -13.779    -103.755
  H     -391.761     -18.020    -103.940
  H     -390.045     -17.693    -104.292
  H     -391.318     -16.675    -105.016
  H     -388.997     -22.858     -97.978
  H     -387.318     -23.192     -98.327
  H     -388.388     -22.668     -99.605

 3  4  5  6  7  8  9  10  11  12  13  23  28  29  30  31  32 0
 6-311+G(2d,p)
 ****
 33  34 0
 6-311+G(2d,p)
 ****
 1  2  14  15  16  17  18  19  20  21  22  24  25  26  27 0
 3-21G
 ****
 35  36  37  38  39  40  41  42  43  44  45 0
 3-21G
 ****


