%nproc=1
%NoSave
%Mem=1900MB
#P OB98/GEN NMR

erre ene a

0 1
  C      409.564     152.204    -386.558
  O      409.221     151.080    -385.757
  P      408.076     150.100    -386.312
  C      407.245     147.789    -385.471
  O      408.344     148.683    -385.610
  C      407.731     146.390    -385.102
  O      408.324     145.766    -386.249
  C      408.806     146.364    -384.024
  O      408.251     146.483    -382.720
  C      409.403     144.981    -384.242
  O      408.582     143.991    -383.592
  C      409.320     144.822    -385.770
  N      413.224     142.778    -388.273
  C      412.097     142.176    -387.733
  N      411.989     140.843    -387.913
  N      411.173     142.825    -387.079
  C      411.395     144.156    -387.013
  C      412.468     144.869    -387.502
  C      413.512     144.138    -388.183
  O      414.556     144.606    -388.621
  N      412.333     146.213    -387.253
  C      411.163     146.319    -386.650
  N      410.571     145.093    -386.450
  O      408.521     149.845    -387.831
  O      406.685     150.632    -386.220
  H      407.656     144.188    -383.836
  H      407.738     149.614    -388.374
  H      413.894     142.243    -388.782
  H      410.713     147.250    -386.336
  H      408.980     143.819    -386.049
  H      410.411     144.879    -383.829
  H      412.602     140.317    -388.516
  H      409.572     147.133    -384.206
  H      411.157     140.388    -387.555
  H      406.861     145.799    -384.797
  H      406.701     147.734    -386.423
  H      406.563     148.179    -384.705
  P      409.286     146.758    -381.521
  C      408.976     147.415    -379.025
  O      408.394     147.307    -380.310
  O      410.093     148.047    -382.020
  O      410.187     145.607    -381.210
  H      410.980     148.070    -381.611
  H      410.024     147.722    -379.084
  H      408.907     146.456    -378.509
  H      408.426     148.166    -378.449
  H      410.334     152.766    -386.072
  H      408.701     152.823    -386.693
  H      409.915     151.869    -387.512

 3  4  5  6  7  8  9  10  11  12  23  26  30  31  33  0
 6-311+G(2d,p)
 ****
 35  36  37  38 0
 6-311+G(2d,p)
 ****
 1  2  13  14  15  16  17  18  19  20  21  22  24  25  27  28  29 0
 3-21G
 ****
 32  34  39  40  41  42  43  44  45  46  47  48  49 0
 3-21G
 ****


