%nproc=1
%NoSave
%Mem=1900MB
#P OB98/GEN NMR

erre ene a

0 1
  C     -380.454    -167.662     -84.790
  O     -379.745    -167.006     -85.821
  H     -379.786    -168.386     -84.314
  H     -381.310    -168.201     -85.203
  H     -380.787    -166.945     -84.036
  P     -380.507    -165.890     -86.685
  C     -381.578    -167.905     -87.914
  O     -381.792    -166.657     -87.271
  C     -382.620    -168.119     -89.011
  O     -383.954    -167.846     -88.528
  C     -382.462    -167.217     -90.230
  O     -381.377    -167.574     -91.069
  C     -383.808    -167.443     -90.897
  O     -383.816    -168.726     -91.548
  C     -384.750    -167.425     -89.672
  N     -385.339    -166.109     -89.430
  C     -386.627    -165.896     -89.934
  O     -387.215    -166.783     -90.551
  N     -387.215    -164.666     -89.756
  C     -386.563    -163.724     -89.148
  N     -387.191    -162.524     -89.001
  C     -385.195    -163.898     -88.620
  C     -384.651    -165.098     -88.792
  O     -379.679    -165.162     -87.696
  O     -381.176    -164.927     -85.596
  H     -384.741    -168.913     -91.794
  H     -381.653    -164.210     -86.079
  H     -384.684    -163.068     -88.150
  H     -383.645    -165.301     -88.439
  H     -385.560    -168.158     -89.791
  H     -384.043    -166.694     -91.656
  H     -382.396    -166.163     -89.931
  H     -382.588    -169.181     -89.290
  H     -388.125    -162.434     -89.377
  H     -381.635    -168.694     -87.158
  H     -386.728    -161.710     -88.614
  H     -380.584    -167.922     -88.374
  P     -380.518    -166.367     -91.701
  C     -382.350    -165.302     -93.231
  O     -381.567    -165.207     -92.052
  O     -380.081    -166.944     -93.126
  O     -379.352    -165.916     -90.874
  H     -379.166    -167.289     -93.091
  H     -382.990    -164.447     -93.304
  H     -382.945    -166.191     -93.193
  H     -381.706    -165.340     -94.085

 6  7  8  9  10  11  12  13  14  15  16  26  30  31  32  33  35 0
 6-311+G(2d,p)
 ****
 37  38 0
 6-311+G(2d,p)
 ****
 1  2  3  4  5  17  18  19  20  21  22  23  24  25 0
 3-21G
 ****
 27  28  29  34  36  39  40  41  42  43  44  45  46 0
 3-21G
 ****


