%nproc=1
%NoSave
%Mem=1900MB
#P OB98/GEN NMR

erre ene a

0 1
  C     -109.857    -111.844      39.492
  O     -109.639    -111.001      40.605
  H     -110.527    -111.335      38.795
  H     -110.323    -112.782      39.803
  H     -108.913    -112.047      38.980
  P     -108.776    -111.569      41.833
  C     -109.369    -113.094      43.842
  O     -109.776    -112.581      42.583
  C     -109.710    -114.578      43.943
  O     -109.025    -115.338      42.926
  C     -109.307    -115.240      45.258
  O     -110.147    -114.892      46.345
  C     -109.439    -116.704      44.866
  O     -110.830    -117.071      44.837
  C     -108.841    -116.687      43.438
  N     -107.428    -117.058      43.408
  C     -107.137    -118.406      43.166
  O     -108.044    -119.219      42.991
  N     -105.825    -118.812      43.165
  C     -104.885    -117.951      43.403
  N     -103.605    -118.414      43.438
  C     -105.144    -116.519      43.645
  C     -106.422    -116.145      43.640
  O     -108.122    -110.549      42.709
  O     -107.740    -112.584      41.156
  H     -110.869    -118.025      44.648
  H     -107.173    -112.954      41.875
  H     -104.324    -115.846      43.848
  H     -106.693    -115.112      43.827
  H     -109.397    -117.361      42.776
  H     -108.937    -117.383      45.561
  H     -108.258    -115.035      45.493
  H     -110.786    -114.684      43.752
  H     -103.469    -119.408      43.309
  H     -109.877    -112.520      44.623
  H     -102.864    -117.883      43.883
  H     -108.288    -112.979      43.964
  P     -109.718    -115.385      47.813
  C     -109.842    -117.677      49.046
  O     -109.818    -116.986      47.808
  O     -110.956    -114.931      48.716
  O     -108.413    -114.857      48.319
  H     -110.794    -114.057      49.121
  H     -109.910    -118.729      48.866
  H     -110.689    -117.357      49.617
  H     -108.945    -117.466      49.590

 6  7  8  9  10  11  12  13  14  15  16  26  30  31  32  33  35 0
 6-311+G(2d,p)
 ****
 37  38 0
 6-311+G(2d,p)
 ****
 1  2  3  4  5  17  18  19  20  21  22  23  24  25 0
 3-21G
 ****
 27  28  29  34  36  39  40  41  42  43  44  45  46 0
 3-21G
 ****


