%nproc=1
%NoSave
%Mem=1900MB
#P OB98/GEN NMR

erre ene a

0 1
  C      -75.674      42.582     113.294
  O      -75.248      41.449     112.531
  P      -74.399      41.680     111.192
  C      -76.508      42.587     110.006
  O      -75.132      42.796     110.298
  C      -76.818      42.953     108.539
  O      -76.705      44.389     108.355
  C      -75.869      42.271     107.540
  O      -76.559      41.595     106.483
  C      -74.936      43.392     107.116
  O      -74.338      43.163     105.846
  C      -75.825      44.639     107.243
  N      -75.031      45.859     107.420
  C      -74.318      46.305     106.314
  O      -74.262      45.683     105.251
  N      -73.601      47.466     106.492
  C      -73.481      48.159     107.656
  O      -72.792      49.168     107.777
  C      -74.210      47.604     108.811
  C      -74.943      46.500     108.639
  O      -74.005      40.443     110.452
  O      -73.102      42.467     111.722
  H      -73.865      43.981     105.573
  H      -72.327      42.133     111.221
  H      -73.088      47.807     105.695
  H      -74.118      48.119     109.760
  H      -75.483      46.064     109.473
  H      -76.437      44.777     106.340
  H      -74.122      43.465     107.847
  H      -75.281      41.477     108.017
  H      -77.855      42.657     108.345
  H      -77.120      43.208     110.659
  H      -76.774      41.548     110.222
  P      -76.371      40.052     106.118
  C      -74.429      40.290     104.412
  O      -74.846      39.817     105.682
  O      -77.383      39.472     105.188
  O      -76.458      39.329     107.550
  H      -76.967      38.500     107.458
  H      -73.522      39.742     104.118
  H      -74.197      41.355     104.472
  H      -75.200      40.123     103.648
  H      -76.225      42.250     114.149
  H      -76.298      43.206     112.688
  H      -74.818      43.138     113.615

 3  4  5  6  7  8  9  10  11  12  13  23  28  29  30  31  32 0
 6-311+G(2d,p)
 ****
 33  34 0
 6-311+G(2d,p)
 ****
 1  2  14  15  16  17  18  19  20  21  22  24  25  26  27 0
 3-21G
 ****
 35  36  37  38  39  40  41  42  43  44  45 0
 3-21G
 ****


