%nproc=1
%NoSave
%Mem=1900MB
#P OB98/GEN NMR

erre ene a

0 1
  C     -150.514      52.304    -241.085
  O     -151.888      51.995    -241.204
  H     -150.273      53.105    -241.788
  H     -149.913      51.426    -241.333
  H     -150.284      52.640    -240.071
  P     -152.475      50.897    -240.191
  C     -153.186      49.222    -242.037
  O     -153.608      50.093    -240.999
  C     -153.886      49.567    -243.351
  O     -153.117      50.598    -244.039
  C     -154.034      48.382    -244.318
  O     -155.277      48.532    -245.016
  C     -152.903      48.610    -245.308
  O     -153.121      47.947    -246.551
  C     -152.920      50.135    -245.388
  N     -151.114      53.208    -248.941
  C     -152.416      52.924    -248.577
  N     -153.391      53.556    -249.266
  N     -152.735      52.093    -247.622
  C     -151.659      51.559    -246.995
  C     -150.325      51.752    -247.261
  C     -149.985      52.656    -248.341
  O     -148.852      52.931    -248.721
  N     -149.540      51.004    -246.420
  C     -150.398      50.362    -245.648
  N     -151.695      50.665    -245.959
  O     -153.309      51.789    -239.156
  O     -151.457      50.049    -239.505
  H     -152.522      48.348    -247.214
  H     -152.758      52.013    -238.383
  H     -150.923      53.846    -249.693
  H     -150.136      49.670    -244.858
  H     -153.745      50.511    -246.005
  H     -151.956      48.249    -244.889
  H     -153.220      54.242    -249.981
  H     -153.995      47.399    -243.838
  H     -154.352      53.394    -248.985
  H     -154.864      50.006    -243.118
  H     -153.432      48.191    -241.760
  H     -152.099      49.307    -242.160
  P     -156.422      47.445    -244.760
  C     -157.351      46.880    -247.124
  O     -157.525      47.601    -245.912
  O     -157.176      48.021    -243.469
  O     -155.914      46.059    -244.530
  H     -157.577      47.287    -242.965
  H     -158.166      47.091    -247.784
  H     -157.324      45.831    -246.914
  H     -156.432      47.175    -247.586

 6  7  8  9  10  11  12  13  14  15  26  29  33  34 0
 6-311+G(2d,p)
 ****
 36  38  39  40  41 0
 6-311+G(2d,p)
 ****
 1  2  3  4  5  16  17  18  19  20  21  22  23  24  25 0
 3-21G
 ****
 27  28  30  31  32  35  37  42  43  44  45  46  47 0
 3-21G
 ****
 48  49 0
 3-21G
 ****


