%nproc=1
%NoSave
%Mem=1900MB
#P OB98/GEN NMR

erre ene a

0 1
  C     -232.202     220.276    -398.220
  O     -232.659     219.523    -397.110
  P     -232.619     220.063    -395.607
  C     -235.035     219.315    -395.024
  O     -233.650     219.195    -394.732
  C     -235.802     217.988    -394.858
  O     -235.453     217.096    -395.933
  C     -235.366     217.294    -393.559
  O     -235.948     217.662    -392.322
  C     -235.410     215.800    -393.877
  O     -236.621     215.181    -393.421
  C     -235.342     215.765    -395.408
  N     -232.243     211.735    -395.327
  C     -233.553     211.841    -394.880
  N     -234.019     210.792    -394.159
  N     -234.317     212.882    -395.108
  C     -233.675     213.882    -395.761
  C     -232.399     213.889    -396.266
  C     -231.580     212.718    -396.044
  O     -230.394     212.621    -396.348
  N     -232.059     215.112    -396.805
  C     -233.131     215.860    -396.596
  N     -234.124     215.164    -395.934
  O     -232.595     221.549    -395.427
  O     -231.189     219.501    -395.105
  H     -236.655     215.280    -392.452
  H     -230.812     220.156    -394.486
  H     -231.679     210.942    -395.055
  H     -233.219     216.896    -396.870
  H     -236.181     215.188    -395.823
  H     -234.584     215.271    -393.383
  H     -233.414     210.048    -393.843
  H     -234.299     217.518    -393.424
  H     -234.904     210.910    -393.676
  H     -236.880     218.145    -394.931
  H     -235.123     219.679    -396.047
  H     -235.479     220.069    -394.377
  P     -235.317     217.454    -390.873
  C     -235.403     219.808    -389.881
  O     -235.977     218.511    -389.876
  O     -233.812     217.983    -391.025
  O     -235.314     216.041    -390.376
  H     -233.248     217.588    -390.322
  H     -235.714     220.347    -388.985
  H     -235.763     220.356    -390.756
  H     -234.310     219.751    -389.908
  H     -232.331     219.705    -399.116
  H     -231.165     220.508    -398.091
  H     -232.764     221.183    -398.291

 3  4  5  6  7  8  9  10  11  12  23  26  30  31 0
 6-311+G(2d,p)
 ****
 33  35  36  37  38 0
 6-311+G(2d,p)
 ****
 1  2  13  14  15  16  17  18  19  20  21  22  24  25 0
 3-21G
 ****
 27  28  29  32  34  39  40  41  42  43  44  45  46  47  48  49 0
 3-21G
 ****


