%nproc=1
%NoSave
%Mem=1900MB
#P OB98/GEN NMR

erre ene a

0 1
  C      937.775    -455.972     673.774
  O      937.074    -455.251     674.778
  H      938.633    -455.359     673.438
  H      937.123    -456.145     672.913
  H      938.145    -456.912     674.173
  P      935.758    -455.964     675.375
  C      936.919    -457.133     677.392
  O      936.014    -456.118     676.962
  C      937.441    -456.828     678.800
  O      938.263    -455.624     678.786
  C      936.346    -456.591     679.832
  O      935.862    -457.819     680.348
  C      937.092    -455.765     680.896
  O      937.885    -456.619     681.737
  C      937.992    -454.876     680.015
  N      938.391    -449.882     680.749
  C      939.174    -450.927     681.192
  N      940.225    -450.583     681.985
  N      938.990    -452.185     680.900
  C      937.924    -452.371     680.097
  C      937.033    -451.426     679.581
  C      937.284    -450.045     679.902
  O      936.660    -449.085     679.473
  N      936.061    -452.015     678.812
  C      936.311    -453.328     678.894
  N      937.407    -453.589     679.698
  O      935.889    -457.484     674.842
  O      934.462    -455.347     674.985
  H      937.310    -457.277     682.131
  H      934.991    -457.842     674.718
  H      938.607    -448.953     680.997
  H      935.734    -454.097     678.405
  H      938.957    -454.692     680.502
  H      936.397    -455.214     681.521
  H      940.204    -449.719     682.516
  H      935.518    -455.989     679.420
  H      940.799    -451.354     682.342
  H      938.091    -457.650     679.112
  H      937.772    -457.168     676.703
  H      936.419    -458.101     677.381
  P      934.358    -457.826     680.958
  C      933.120    -458.712     678.847
  O      933.546    -458.975     680.194
  O      933.722    -456.467     680.400
  O      934.300    -457.895     682.462
  H      932.923    -456.242     680.912
  H      932.594    -459.562     678.467
  H      933.975    -458.519     678.234
  H      932.474    -457.859     678.837

 6  7  8  9  10  11  12  13  14  15  26  29  33  34 0
 6-311+G(2d,p)
 ****
 36  38  39  40  41 0
 6-311+G(2d,p)
 ****
 1  2  3  4  5  16  17  18  19  20  21  22  23  24  25 0
 3-21G
 ****
 27  28  30  31  32  35  37  42  43  44  45  46  47 0
 3-21G
 ****
 48  49 0
 3-21G
 ****


