%nproc=1
%NoSave
%Mem=1900MB
#P OB98/GEN NMR

erre ene a

0 1
  C     -254.605     861.604     -72.859
  O     -253.226     861.358     -72.682
  H     -254.742     862.208     -73.757
  H     -255.001     862.160     -72.003
  H     -255.158     860.668     -72.980
  P     -252.765     860.340     -71.537
  C     -250.607     861.635     -70.950
  O     -251.165     860.427     -71.456
  C     -249.415     862.082     -71.809
  O     -248.393     861.043     -71.758
  C     -249.754     862.308     -73.290
  O     -248.867     863.323     -73.781
  C     -249.413     860.946     -73.876
  O     -249.375     860.957     -75.281
  C     -248.107     860.677     -73.126
  N     -247.611     859.311     -73.201
  C     -246.640     859.021     -74.155
  O     -246.164     859.843     -74.936
  N     -246.212     857.722     -74.196
  C     -246.635     856.711     -73.390
  O     -246.194     855.568     -73.453
  C     -247.668     857.070     -72.407
  C     -248.097     858.332     -72.355
  O     -253.313     858.956     -71.634
  O     -253.228     861.062     -70.182
  H     -254.050     860.647     -69.851
  H     -248.683     861.588     -75.580
  H     -245.504     857.497     -74.880
  H     -248.035     856.288     -71.757
  H     -248.852     858.631     -71.634
  H     -247.321     861.359     -73.477
  H     -250.179     860.220     -73.601
  H     -250.789     862.623     -73.453
  H     -248.977     862.983     -71.359
  H     -250.277     861.452     -69.922
  H     -251.378     862.410     -70.942
  P     -249.345     864.555     -74.696
  C     -247.866     865.142     -76.739
  O     -248.043     865.242     -75.330
  O     -250.254     865.514     -73.992
  O     -250.080     863.882     -75.950
  H     -250.737     864.507     -76.316
  H     -246.963     865.642     -77.021
  H     -248.696     865.598     -77.236
  H     -247.806     864.111     -77.019

 6  7  8  9  10  11  12  13  14  15  16  27  31  32  33  34  35 0
 6-311+G(2d,p)
 ****
 36  37 0
 6-311+G(2d,p)
 ****
 1  2  3  4  5  17  18  19  20  21  22  23  24  25 0
 3-21G
 ****
 26  28  29  30  38  39  40  41  42  43  44  45 0
 3-21G
 ****


