%nproc=1
%NoSave
%Mem=1900MB
#P OB98/GEN NMR

erre ene a

0 1
  C       -9.013     -46.425      52.773
  O       -8.214     -46.537      53.938
  P       -6.842     -47.367      53.829
  C       -8.084     -49.545      54.534
  O       -7.249     -48.900      53.588
  C       -7.505     -50.908      54.920
  O       -7.507     -51.761      53.746
  C       -6.066     -50.869      55.448
  O       -5.944     -51.926      56.407
  C       -5.241     -51.199      54.218
  O       -3.944     -51.689      54.541
  C       -6.152     -52.211      53.531
  N       -2.838     -53.763      50.041
  C       -2.725     -53.739      51.419
  N       -1.592     -54.256      51.936
  N       -3.642     -53.253      52.215
  C       -4.726     -52.785      51.553
  C       -4.937     -52.718      50.196
  C       -3.934     -53.293      49.329
  O       -4.030     -53.414      48.111
  N       -6.120     -52.094      49.902
  C       -6.660     -51.858      51.080
  N       -5.874     -52.300      52.111
  O       -6.297     -47.352      55.332
  O       -5.842     -46.840      52.850
  H       -3.499     -51.932      53.705
  H       -5.671     -46.615      55.473
  H       -2.107     -54.167      49.480
  H       -7.612     -51.379      51.248
  H       -6.055     -53.220      53.952
  H       -5.117     -50.300      53.604
  H       -0.858     -54.676      51.384
  H       -5.790     -49.912      55.898
  H       -1.498     -54.282      52.944
  H       -8.171     -51.368      55.660
  H       -9.072     -49.702      54.087
  H       -8.201     -48.908      55.417
  P       -5.128     -51.626      57.754
  C       -2.866     -52.506      56.852
  O       -3.595     -51.404      57.352
  O       -5.113     -53.052      58.487
  O       -5.734     -50.583      58.636
  H       -5.120     -52.923      59.453
  H       -2.020     -52.131      56.270
  H       -3.483     -53.138      56.208
  H       -2.485     -53.099      57.686
  H       -9.888     -45.850      52.994
  H       -9.302     -47.401      52.443
  H       -8.453     -45.939      52.002

 3  4  5  6  7  8  9  10  11  12  23  26  30  31 0
 6-311+G(2d,p)
 ****
 33  35  36  37  38 0
 6-311+G(2d,p)
 ****
 1  2  13  14  15  16  17  18  19  20  21  22  24  25 0
 3-21G
 ****
 27  28  29  32  34  39  40  41  42  43  44  45  46  47  48  49 0
 3-21G
 ****


