%nproc=1
%NoSave
%Mem=1900MB
#P OB98/GEN NMR

erre ene a

0 1
  C      237.609     172.133    -108.404
  O      238.370     171.817    -107.249
  P      239.226     172.994    -106.570
  C      237.483     173.817    -104.817
  O      238.171     174.077    -106.028
  C      237.869     174.842    -103.750
  O      237.031     174.634    -102.582
  C      239.326     174.766    -103.280
  O      239.729     176.100    -102.945
  C      239.236     173.929    -102.018
  O      240.352     174.115    -101.153
  C      237.904     174.411    -101.454
  N      237.965     172.543     -96.755
  C      238.797     173.475     -97.347
  N      239.740     174.027     -96.553
  N      238.712     173.834     -98.602
  C      237.710     173.210     -99.265
  C      236.848     172.244     -98.801
  C      236.928     171.885     -97.404
  O      236.157     171.130     -96.817
  N      236.027     171.784     -99.796
  C      236.338     172.527    -100.838
  N      237.321     173.437    -100.553
  O      239.899     173.717    -107.827
  O      240.232     172.558    -105.551
  H      240.485     175.077    -101.038
  H      240.793     173.363    -107.999
  H      238.067     172.321     -95.778
  H      235.886     172.456    -101.815
  H      237.998     175.357    -100.902
  H      239.189     172.865    -102.282
  H      239.843     173.820     -95.571
  H      240.004     174.338    -104.024
  H      240.343     174.736     -96.953
  H      237.644     175.845    -104.137
  H      237.760     172.821    -104.458
  H      236.403     173.831    -104.997
  P      241.248     176.521    -103.240
  C      240.528     177.269    -105.613
  O      241.446     176.536    -104.826
  O      242.072     175.225    -102.779
  O      241.715     177.735    -102.505
  H      242.942     175.495    -102.434
  H      241.000     177.514    -106.568
  H      240.228     178.198    -105.119
  H      239.643     176.658    -105.802
  H      237.095     171.258    -108.743
  H      238.261     172.485    -109.176
  H      236.896     172.894    -108.164

 3  4  5  6  7  8  9  10  11  12  23  26  30  31 0
 6-311+G(2d,p)
 ****
 33  35  36  37  38 0
 6-311+G(2d,p)
 ****
 1  2  13  14  15  16  17  18  19  20  21  22  24  25 0
 3-21G
 ****
 27  28  29  32  34  39  40  41  42  43  44  45  46  47  48  49 0
 3-21G
 ****


