%nproc=1
%NoSave
%Mem=1900MB
#P OB98/GEN NMR

erre ene a

0 1
  C     -423.228     905.539    -376.450
  O     -422.142     904.651    -376.612
  H     -423.352     905.748    -375.381
  H     -424.146     905.082    -376.825
  H     -423.037     906.482    -376.973
  P     -421.655     904.377    -378.120
  C     -419.208     903.830    -377.433
  O     -420.422     903.354    -378.020
  C     -418.163     902.716    -377.442
  O     -418.437     901.759    -376.386
  C     -418.089     901.917    -378.743
  O     -417.316     902.585    -379.719
  C     -417.406     900.659    -378.256
  O     -415.994     900.904    -378.093
  C     -418.059     900.435    -376.889
  N     -419.810     895.742    -377.681
  C     -418.505     896.229    -377.760
  N     -417.554     895.344    -378.085
  N     -418.197     897.474    -377.514
  C     -419.260     898.240    -377.202
  C     -420.591     897.879    -377.117
  C     -420.921     896.488    -377.364
  O     -422.056     896.006    -377.308
  N     -421.381     898.932    -376.763
  C     -420.544     899.956    -376.660
  N     -419.247     899.595    -376.924
  O     -420.963     905.752    -378.544
  O     -422.736     903.992    -379.081
  H     -415.614     901.010    -378.981
  H     -421.134     905.922    -379.496
  H     -419.996     894.772    -377.885
  H     -420.828     900.966    -376.397
  H     -417.381     899.985    -376.155
  H     -417.511     899.823    -378.958
  H     -417.733     894.387    -378.325
  H     -419.093     901.671    -379.112
  H     -416.596     895.679    -378.096
  H     -417.189     903.168    -377.214
  H     -419.416     904.124    -376.401
  H     -418.850     904.684    -377.999
  P     -416.950     901.769    -381.058
  C     -416.737     903.859    -382.604
  O     -416.074     902.784    -381.951
  O     -418.359     901.736    -381.834
  O     -416.394     900.425    -380.851
  H     -418.371     900.987    -382.472
  H     -416.023     904.438    -383.153
  H     -417.214     904.479    -381.875
  H     -417.472     903.469    -383.276

 6  7  8  9  10  11  12  13  14  15  26  29  33  34 0
 6-311+G(2d,p)
 ****
 36  38  39  40  41 0
 6-311+G(2d,p)
 ****
 1  2  3  4  5  16  17  18  19  20  21  22  23  24  25 0
 3-21G
 ****
 27  28  30  31  32  35  37  42  43  44  45  46  47 0
 3-21G
 ****
 48  49 0
 3-21G
 ****


