%nproc=1
%NoSave
%Mem=1900MB
#P OB98/GEN NMR

erre ene a

0 1
  C      139.339    -188.585    -195.795
  O      138.365    -187.937    -196.588
  H      138.852    -189.382    -195.228
  H      139.781    -187.877    -195.089
  H      140.119    -189.026    -196.420
  P      138.832    -186.783    -197.600
  C      137.429    -184.687    -197.106
  O      138.633    -185.388    -196.831
  C      137.243    -183.531    -196.125
  O      136.716    -184.058    -194.880
  C      138.541    -182.779    -195.805
  O      138.240    -181.390    -195.678
  C      138.949    -183.339    -194.455
  O      139.742    -182.420    -193.705
  C      137.594    -183.637    -193.816
  N      136.930    -184.627    -188.908
  C      136.648    -183.488    -189.633
  N      136.134    -182.442    -188.948
  N      136.853    -183.379    -190.918
  C      137.356    -184.504    -191.479
  C      137.682    -185.694    -190.872
  C      137.460    -185.797    -189.441
  O      137.703    -186.773    -188.745
  N      138.193    -186.592    -191.774
  C      138.183    -185.943    -192.924
  N      137.695    -184.671    -192.797
  O      138.214    -186.832    -198.959
  O      140.421    -186.944    -197.662
  H      140.209    -182.941    -193.015
  H      140.688    -187.421    -198.471
  H      136.760    -184.654    -187.917
  H      138.521    -186.345    -193.872
  H      137.156    -182.754    -193.332
  H      139.529    -184.260    -194.596
  H      135.932    -182.459    -187.959
  H      139.314    -182.927    -196.565
  H      135.898    -181.603    -189.465
  H      136.486    -182.851    -196.528
  H      136.592    -185.389    -197.010
  H      137.454    -184.307    -198.132
  P      137.985    -180.531    -197.006
  C      140.417    -179.814    -197.460
  O      139.312    -180.592    -197.907
  O      137.420    -179.166    -196.793
  O      136.963    -181.454    -197.833
  H      136.390    -180.880    -198.379
  H      141.236    -179.936    -198.138
  H      140.710    -180.139    -196.484
  H      140.135    -178.782    -197.423

 6  7  8  9  10  11  12  13  14  15  26  29  33  34 0
 6-311+G(2d,p)
 ****
 36  38  39  40  41 0
 6-311+G(2d,p)
 ****
 1  2  3  4  5  16  17  18  19  20  21  22  23  24  25 0
 3-21G
 ****
 27  28  30  31  32  35  37  42  43  44  45  46  47 0
 3-21G
 ****
 48  49 0
 3-21G
 ****


