%nproc=1
%NoSave
%Mem=1900MB
#P OB98/GEN NMR

erre ene a

0 1
  C     -508.572    1171.235     738.369
  O     -507.556    1171.164     737.345
  P     -506.098    1171.826     737.508
  C     -505.120    1172.567     735.238
  O     -505.267    1171.517     736.176
  C     -504.830    1172.012     733.833
  O     -503.818    1170.972     733.901
  C     -506.002    1171.351     733.147
  O     -506.968    1172.270     732.690
  C     -505.302    1170.572     732.026
  O     -505.057    1171.400     730.882
  C     -503.950    1170.185     732.699
  N     -503.838    1168.774     732.989
  C     -504.030    1167.900     731.926
  O     -504.377    1168.319     730.819
  N     -503.860    1166.542     732.142
  C     -503.609    1166.116     733.328
  N     -503.429    1164.772     733.477
  C     -503.533    1166.988     734.506
  C     -503.644    1168.298     734.271
  O     -505.398    1171.436     738.773
  O     -506.345    1173.401     737.467
  H     -505.622    1173.862     737.952
  H     -504.384    1170.932     730.336
  H     -503.358    1166.584     735.502
  H     -503.587    1169.018     735.084
  H     -503.120    1170.501     732.065
  H     -505.882    1169.714     731.694
  H     -506.468    1170.632     733.847
  H     -504.448    1172.849     733.223
  H     -503.488    1164.201     732.641
  H     -504.282    1173.195     735.555
  H     -503.207    1164.333     734.362
  H     -506.025    1173.187     735.237
  P     -508.497    1171.775     732.661
  C     -509.944    1172.773     730.751
  O     -509.381    1172.961     732.024
  O     -508.934    1171.760     734.197
  O     -508.700    1170.436     732.014
  H     -509.488    1170.968     734.373
  H     -510.866    1173.378     730.673
  H     -510.221    1171.730     730.566
  H     -509.248    1173.090     729.971
  H     -509.451    1170.725     738.035
  H     -508.807    1172.260     738.567
  H     -508.210    1170.773     739.263

 3  4  5  6  7  8  9  10  11  12  13  24  27  28  29  30  32 0
 6-311+G(2d,p)
 ****
 34  35 0
 6-311+G(2d,p)
 ****
 1  2  14  15  16  17  18  19  20  21  22  23  25  26 0
 3-21G
 ****
 31  33  36  37  38  39  40  41  42  43  44  45  46 0
 3-21G
 ****


