%nproc=1
%NoSave
%Mem=1900MB
#P OB98/GEN NMR

erre ene a

0 1
  C     -182.221    -292.999    -385.553
  O     -182.335    -294.220    -384.848
  H     -182.284    -292.171    -384.840
  H     -183.033    -292.901    -386.277
  H     -181.256    -292.949    -386.069
  P     -182.370    -295.555    -385.741
  C     -179.766    -295.381    -385.712
  O     -180.945    -295.548    -386.484
  C     -178.984    -296.689    -385.678
  O     -178.646    -297.117    -387.015
  C     -177.656    -296.603    -384.932
  O     -177.812    -296.648    -383.522
  C     -176.961    -297.843    -385.464
  O     -177.506    -299.013    -384.827
  C     -177.356    -297.787    -386.960
  N     -176.375    -297.082    -387.786
  C     -175.088    -297.634    -387.846
  O     -174.817    -298.658    -387.215
  N     -174.128    -296.999    -388.591
  C     -174.423    -295.910    -389.233
  N     -173.426    -295.314    -389.946
  C     -175.766    -295.302    -389.211
  C     -176.680    -295.931    -388.478
  O     -183.384    -295.192    -386.925
  O     -182.697    -296.818    -385.016
  H     -176.959    -299.767    -385.108
  H     -183.379    -295.911    -387.603
  H     -175.961    -294.386    -389.754
  H     -177.689    -295.539    -388.414
  H     -177.494    -298.796    -387.363
  H     -175.884    -297.846    -385.277
  H     -177.081    -295.720    -385.234
  H     -179.634    -297.461    -385.242
  H     -172.503    -295.719    -389.890
  H     -180.056    -295.085    -384.698
  H     -173.516    -294.375    -390.324
  H     -179.140    -294.596    -386.149
  P     -176.787    -295.784    -382.631
  C     -178.626    -293.945    -382.553
  O     -177.250    -294.249    -382.747
  O     -175.441    -295.828    -383.489
  O     -176.584    -296.290    -381.236
  H     -174.656    -295.907    -382.911
  H     -178.777    -292.891    -382.661
  H     -178.924    -294.249    -381.571
  H     -179.212    -294.466    -383.281

 6  7  8  9  10  11  12  13  14  15  16  26  30  31  32  33  35 0
 6-311+G(2d,p)
 ****
 37  38 0
 6-311+G(2d,p)
 ****
 1  2  3  4  5  17  18  19  20  21  22  23  24  25 0
 3-21G
 ****
 27  28  29  34  36  39  40  41  42  43  44  45  46 0
 3-21G
 ****


