%nproc=1
%NoSave
%Mem=1900MB
#P OB98/GEN NMR

erre ene a

0 1
  C     -127.960    1253.391    -216.668
  O     -129.357    1253.314    -216.444
  P     -130.029    1251.854    -216.421
  C     -131.752    1253.183    -217.840
  O     -131.508    1252.048    -216.997
  C     -133.195    1253.641    -217.726
  O     -134.084    1252.512    -217.959
  C     -133.590    1254.195    -216.363
  O     -133.185    1255.552    -216.204
  C     -135.109    1254.075    -216.421
  O     -135.659    1255.198    -217.144
  C     -135.321    1252.782    -217.213
  N     -138.784    1249.283    -216.028
  C     -138.844    1250.318    -216.935
  N     -139.980    1250.423    -217.653
  N     -137.872    1251.184    -217.118
  C     -136.779    1250.926    -216.375
  C     -136.586    1249.926    -215.434
  C     -137.699    1249.023    -215.190
  O     -137.714    1248.124    -214.360
  N     -135.338    1249.986    -214.887
  C     -134.748    1250.981    -215.518
  N     -135.589    1251.611    -216.398
  O     -130.272    1251.598    -214.861
  O     -129.209    1250.767    -217.035
  H     -136.615    1255.018    -217.253
  H     -130.297    1250.641    -214.672
  H     -139.547    1248.640    -215.941
  H     -133.715    1251.301    -215.338
  H     -136.104    1252.880    -217.957
  H     -135.564    1254.067    -215.418
  H     -140.704    1249.722    -217.646
  H     -133.209    1253.556    -215.552
  H     -140.034    1251.156    -218.352
  H     -133.373    1254.383    -218.518
  H     -131.535    1252.909    -218.880
  H     -131.073    1253.982    -217.546
  P     -131.758    1255.794    -215.473
  C     -132.915    1257.438    -213.814
  O     -131.893    1257.225    -214.792
  O     -130.765    1256.030    -216.698
  O     -131.322    1254.663    -214.596
  H     -129.845    1255.786    -216.438
  H     -133.038    1256.528    -213.200
  H     -133.838    1257.690    -214.313
  H     -132.598    1258.254    -213.169
  H     -127.653    1254.416    -216.657
  H     -127.727    1252.959    -217.619
  H     -127.445    1252.856    -215.897

 3  4  5  6  7  8  9  10  11  12  23  26  30  31  33  0
 6-311+G(2d,p)
 ****
 35  36  37  38 0
 6-311+G(2d,p)
 ****
 1  2  13  14  15  16  17  18  19  20  21  22  24  25  27  28  29 0
 3-21G
 ****
 32  34  39  40  41  42  43  44  45  46  47  48  49 0
 3-21G
 ****


