%nproc=1
%NoSave
%Mem=1900MB
#P OB98/GEN NMR

erre ene a

0 1
  C     1055.271    1736.281    -895.730
  O     1055.448    1734.882    -895.640
  H     1054.874    1736.556    -896.710
  H     1054.544    1736.582    -894.960
  H     1056.218    1736.794    -895.540
  P     1056.482    1734.227    -896.680
  C     1058.142    1733.234    -894.930
  O     1057.139    1732.966    -895.910
  C     1058.846    1731.931    -894.580
  O     1059.426    1731.344    -895.770
  C     1060.007    1732.089    -893.590
  O     1059.564    1732.173    -892.260
  C     1060.783    1730.798    -893.850
  O     1060.125    1729.708    -893.200
  C     1060.672    1730.683    -895.380
  N     1063.660    1730.342    -899.500
  C     1062.667    1729.572    -899.060
  N     1061.906    1729.708    -897.950
  C     1062.289    1730.817    -897.270
  C     1063.327    1731.704    -897.590
  C     1064.002    1731.422    -898.780
  N     1065.073    1732.203    -899.240
  N     1063.448    1732.676    -896.630
  C     1062.482    1732.413    -895.760
  N     1061.778    1731.285    -896.090
  O     1057.691    1735.276    -896.730
  O     1055.952    1733.919    -898.030
  H     1060.291    1729.775    -892.250
  H     1058.208    1735.157    -897.540
  H     1062.416    1728.692    -899.680
  H     1062.288    1732.996    -894.870
  H     1060.595    1729.632    -895.700
  H     1061.816    1730.839    -893.470
  H     1060.631    1732.962    -893.860
  H     1058.102    1731.214    -894.180
  H     1057.644    1733.633    -894.020
  H     1065.599    1731.831    -900.000
  H     1065.421    1732.930    -898.630
  H     1058.844    1733.969    -895.310
  P     1060.532    1732.857    -891.180
  C     1058.440    1733.048    -889.620
  O     1059.809    1732.689    -889.750
  O     1060.371    1734.427    -891.480
  O     1061.975    1732.394    -891.250
  H     1061.156    1734.920    -891.240
  H     1058.120    1732.876    -888.614
  H     1057.851    1732.455    -890.288
  H     1058.318    1734.084    -889.860

 6  7  8  9  10  11  12  13  14  15  25  28  32  33  34  35 0
 6-311+G(2d,p)
 ****
 36  39  40 0
 6-311+G(2d,p)
 ****
 1  2  3  4  5  16  17  18  19  20  21  22  23  24 0
 3-21G
 ****
 26  27  29  30  31  37  38  41  42  43  44  45  46  47 0
 3-21G
 ****
 48 0
 3-21G
 ****


