%nproc=1
%NoSave
%Mem=1900MB
#P OB98/GEN NMR

erre ene a

0 1
  C     -501.079    1098.807    -891.270
  O     -502.297    1099.273    -891.840
  H     -501.259    1097.871    -890.760
  H     -500.697    1099.557    -890.560
  H     -500.328    1098.635    -892.070
  P     -502.220    1100.550    -892.800
  C     -502.052    1099.207    -895.070
  O     -502.797    1100.103    -894.230
  C     -502.901    1098.736    -896.230
  O     -504.157    1098.159    -895.790
  C     -503.319    1099.855    -897.180
  O     -502.239    1100.368    -897.930
  C     -504.402    1099.148    -898.000
  O     -503.809    1098.303    -899.010
  C     -505.106    1098.305    -896.910
  N     -506.362    1098.860    -896.490
  C     -507.482    1098.505    -897.280
  O     -507.332    1097.779    -898.250
  N     -508.701    1099.065    -896.940
  C     -508.821    1099.833    -895.920
  N     -510.064    1100.357    -895.650
  C     -507.683    1100.200    -895.020
  C     -506.495    1099.655    -895.360
  O     -500.651    1100.712    -893.090
  O     -502.891    1101.794    -892.280
  H     -504.553    1097.960    -899.570
  H     -500.219    1099.888    -893.400
  H     -507.851    1100.842    -894.170
  H     -505.606    1099.909    -894.780
  H     -505.276    1097.284    -897.260
  H     -505.067    1099.847    -898.530
  H     -503.808    1100.669    -896.640
  H     -502.353    1097.939    -896.780
  H     -510.822    1100.080    -896.300
  H     -501.667    1098.339    -894.470
  H     -510.263    1100.977    -894.910
  H     -501.159    1099.766    -895.440
  P     -502.105    1101.952    -898.250
  C     -500.835    1102.467    -896.030
  O     -500.743    1102.453    -897.470
  O     -503.325    1102.728    -897.930
  O     -501.643    1101.981    -899.810
  H     -500.811    1101.531    -900.000
  H     -499.908    1102.804    -895.617
  H     -501.045    1101.479    -895.676
  H     -501.621    1103.128    -895.729

 6  7  8  9  10  11  12  13  14  15  16  26  30  31  32  33  35 0
 6-311+G(2d,p)
 ****
 37  38 0
 6-311+G(2d,p)
 ****
 1  2  3  4  5  17  18  19  20  21  22  23  24  25 0
 3-21G
 ****
 27  28  29  34  36  39  40  41  42  43  44  45  46 0
 3-21G
 ****


