%nproc=1
%NoSave
%Mem=1900MB
#P OB98/GEN NMR

erre ene a

0 1
  C      269.696      17.078     232.609
  O      269.751      17.806     233.850
  P      269.018      17.198     235.147
  C      271.219      16.475     236.362
  O      269.970      16.087     235.804
  C      271.909      15.263     236.996
  O      272.687      14.546     236.013
  C      272.893      15.609     238.107
  O      272.232      15.936     239.317
  C      273.717      14.330     238.189
  O      273.051      13.341     238.994
  C      273.765      13.889     236.711
  N      275.056      14.162     236.084
  C      276.172      13.602     236.696
  O      276.114      12.952     237.740
  N      277.371      13.835     236.082
  C      277.570      14.620     234.982
  O      278.672      14.810     234.485
  C      276.364      15.255     234.426
  C      275.183      15.006     235.000
  O      267.867      16.295     234.485
  O      268.430      18.201     236.088
  H      272.842      13.769     239.847
  H      267.109      16.232     235.099
  H      278.190      13.410     236.492
  H      276.480      15.902     233.568
  H      274.283      15.468     234.602
  H      273.561      12.813     236.635
  H      274.702      14.496     238.634
  H      273.541      16.433     237.784
  H      271.130      14.584     237.372
  H      271.049      17.234     237.131
  H      271.843      16.906     235.575
  P      271.979      17.498     239.603
  C      269.396      17.138     239.793
  O      270.472      17.774     239.134
  O      272.897      18.168     238.474
  O      272.319      17.899     241.003
  H      272.928      17.632     237.663
  H      269.602      16.991     240.855
  H      269.204      16.172     239.321
  H      268.505      17.765     239.689
  H      270.230      17.618     231.855
  H      268.676      16.961     232.309
  H      270.142      16.114     232.741

 3  4  5  6  7  8  9  10  11  12  13  23  28  29  30  31  32 0
 6-311+G(2d,p)
 ****
 33  34 0
 6-311+G(2d,p)
 ****
 1  2  14  15  16  17  18  19  20  21  22  24  25  26 0
 3-21G
 ****
 27  35  36  37  38  39  40  41  42  43  44  45 0
 3-21G
 ****


