%nproc=1
%NoSave
%Mem=1900MB
#P OB98/GEN NMR

erre ene a

0 1
  C        7.791    -157.278     267.887
  O        8.262    -158.462     267.246
  P        8.862    -159.649     268.145
  C        7.540    -161.555     267.028
  O        8.829    -161.014     267.293
  C        7.612    -162.958     266.408
  O        8.121    -162.896     265.045
  C        8.500    -163.948     267.182
  O        7.887    -165.237     267.077
  C        9.796    -163.909     266.392
  O       10.628    -165.029     266.649
  C        9.246    -163.799     264.965
  N       10.246    -163.333     264.016
  C       10.578    -164.190     262.967
  O       10.114    -165.329     262.929
  N       11.459    -163.740     262.003
  C       12.059    -162.602     262.167
  N       12.904    -162.179     261.187
  C       11.862    -161.746     263.359
  C       10.931    -162.159     264.219
  O        8.295    -159.758     269.522
  O       10.431    -159.305     268.195
  H       11.506    -164.880     266.233
  H       10.781    -159.570     269.063
  H       12.444    -160.849     263.496
  H       10.714    -161.602     265.120
  H        8.865    -164.770     264.616
  H       10.362    -163.004     266.656
  H        8.618    -163.694     268.240
  H        6.584    -163.355     266.353
  H       13.048    -162.785     260.384
  H        7.000    -160.889     266.350
  H       13.371    -161.281     261.217
  H        6.959    -161.564     267.961
  P        7.225    -165.895     268.387
  C        5.305    -167.075     267.085
  O        6.426    -167.209     267.931
  O        6.019    -164.871     268.693
  O        8.115    -166.017     269.584
  H        5.802    -164.919     269.642
  H        5.061    -168.053     266.660
  H        5.505    -166.379     266.264
  H        4.441    -166.725     267.668
  H        7.427    -156.594     267.149
  H        8.593    -156.823     268.430
  H        7.000    -157.529     268.562

 3  4  5  6  7  8  9  10  11  12  13  23  27  28  29  30  32 0
 6-311+G(2d,p)
 ****
 34  35 0
 6-311+G(2d,p)
 ****
 1  2  14  15  16  17  18  19  20  21  22  24  25  26 0
 3-21G
 ****
 31  33  36  37  38  39  40  41  42  43  44  45  46 0
 3-21G
 ****


