%nproc=1
%NoSave
%Mem=1900MB
#P OB98/GEN NMR

erre ene a

0 1
  C      231.235    -268.932    -545.414
  O      232.278    -269.689    -545.992
  H      230.780    -268.317    -546.192
  H      231.629    -268.273    -544.635
  H      230.468    -269.590    -544.996
  P      233.117    -270.682    -545.049
  C      231.192    -272.405    -545.260
  O      231.999    -271.631    -544.387
  C      231.431    -273.893    -545.025
  O      232.721    -274.305    -545.524
  C      231.438    -274.315    -543.558
  O      230.153    -274.337    -542.961
  C      232.038    -275.703    -543.688
  O      231.046    -276.613    -544.196
  C      233.150    -275.446    -544.730
  N      234.450    -275.183    -544.114
  C      235.574    -275.350    -544.929
  O      235.457    -275.708    -546.101
  N      236.826    -275.139    -544.389
  C      236.937    -274.817    -543.139
  N      238.198    -274.627    -542.654
  C      235.779    -274.646    -542.239
  C      234.582    -274.843    -542.783
  O      234.060    -270.032    -544.088
  O      233.835    -271.689    -546.064
  H      230.743    -276.254    -545.050
  H      234.377    -272.321    -545.531
  H      235.929    -274.407    -541.197
  H      233.681    -274.744    -542.186
  H      233.249    -276.298    -545.415
  H      232.392    -276.109    -542.743
  H      232.128    -273.692    -542.975
  H      230.674    -274.443    -545.598
  H      238.969    -274.749    -543.296
  H      231.442    -272.127    -546.290
  H      238.381    -274.448    -541.677
  H      230.134    -272.191    -545.082
  P      230.083    -274.151    -541.367
  C      230.322    -271.552    -541.217
  O      230.922    -272.827    -541.033
  O      231.005    -275.344    -540.826
  O      228.711    -274.175    -540.783
  H      230.455    -276.103    -540.546
  H      231.020    -270.787    -540.947
  H      229.452    -271.475    -540.599
  H      230.042    -271.434    -542.243

 6  7  8  9  10  11  12  13  14  15  16  26  30  31  32  33  35 0
 6-311+G(2d,p)
 ****
 37  38 0
 6-311+G(2d,p)
 ****
 1  2  3  4  5  17  18  19  20  21  22  23  24  25 0
 3-21G
 ****
 27  28  29  34  36  39  40  41  42  43  44  45  46 0
 3-21G
 ****


