%nproc=1
%NoSave
%Mem=1900MB
#P OB98/GEN NMR

erre ene a

0 1
  C      504.447    -891.910     676.005
  O      505.804    -892.240     675.763
  H      504.364    -890.830     676.138
  H      504.102    -892.410     676.919
  H      503.815    -892.220     675.162
  P      506.176    -893.710     675.271
  C      506.934    -892.670     673.024
  O      506.138    -893.660     673.656
  C      507.615    -893.250     671.772
  O      508.590    -894.260     672.212
  C      506.660    -893.950     670.780
  O      507.196    -893.760     669.481
  C      506.798    -895.400     671.229
  O      506.259    -896.270     670.273
  C      508.303    -895.460     671.476
  N      508.719    -896.650     672.212
  C      509.237    -897.720     671.481
  O      509.349    -897.710     670.262
  N      509.569    -898.820     672.208
  C      509.454    -898.980     673.552
  O      509.792    -900.000     674.151
  C      508.890    -897.830     674.278
  C      508.561    -896.730     673.583
  O      505.396    -894.830     675.891
  O      507.736    -893.840     675.584
  H      507.856    -894.310     676.436
  H      505.376    -895.940     669.959
  H      509.941    -899.610     671.684
  H      508.777    -897.920     675.337
  H      508.131    -895.850     674.090
  H      508.850    -895.400     670.543
  H      506.231    -895.570     672.152
  H      505.642    -893.550     670.840
  H      508.174    -892.440     671.278
  H      507.683    -892.320     673.739
  H      506.293    -891.830     672.741
  P      506.395    -892.990     668.299
  C      508.418    -891.490     667.652
  O      507.067    -891.510     668.096
  O      504.925    -892.950     668.498
  O      506.755    -893.760     666.957
  H      505.996    -893.760     666.360
  H      508.747    -890.476     667.556
  H      508.489    -891.979     666.703
  H      509.035    -891.999     668.363

 6  7  8  9  10  11  12  13  14  15  16  27  31  32  33  34  35 0
 6-311+G(2d,p)
 ****
 36  37 0
 6-311+G(2d,p)
 ****
 1  2  3  4  5  17  18  19  20  21  22  23  24  25 0
 3-21G
 ****
 26  28  29  30  38  39  40  41  42  43  44  45 0
 3-21G
 ****


