%nproc=1
%NoSave
%Mem=1900MB
#P OB98/GEN NMR

erre ene a

0 1
  C     -188.226      31.926     258.049
  O     -189.093      32.715     257.257
  H     -187.322      32.503     258.261
  H     -187.946      31.017     257.510
  H     -188.710      31.668     258.994
  P     -190.497      32.050     256.856
  C     -189.158      30.456     255.318
  O     -190.108      30.572     256.368
  C     -189.837      29.982     254.034
  O     -188.942      30.103     252.914
  C     -190.276      28.523     254.058
  O     -191.508      28.377     254.744
  C     -190.424      28.247     252.570
  O     -191.681      28.773     252.100
  C     -189.260      29.053     251.962
  N     -187.163      25.339     249.106
  C     -188.441      25.749     249.246
  N     -188.930      26.713     250.055
  C     -187.948      27.280     250.772
  C     -186.597      26.967     250.734
  C     -186.208      25.952     249.844
  N     -184.900      25.544     249.696
  N     -185.887      27.758     251.613
  C     -186.785      28.572     252.130
  N     -188.053      28.298     251.681
  O     -191.351      32.850     255.934
  O     -191.129      31.776     258.302
  H     -192.381      28.424     252.683
  H     -190.441      31.482     258.925
  H     -189.171      25.236     248.624
  H     -186.571      29.381     252.818
  H     -189.550      29.537     251.023
  H     -190.421      27.179     252.342
  H     -189.493      27.875     254.466
  H     -190.689      30.644     253.841
  H     -188.363      29.757     255.598
  H     -184.733      24.701     249.169
  H     -184.212      25.913     250.335
  H     -188.713      31.444     255.166
  P     -191.766      27.117     255.702
  C     -193.365      26.013     254.019
  O     -192.147      25.886     254.744
  O     -192.725      27.356     256.815
  O     -190.315      26.718     256.241
  H     -190.366      26.440     257.175
  H     -193.515      25.140     253.418
  H     -193.316      26.876     253.388
  H     -194.179      26.118     254.705

 6  7  8  9  10  11  12  13  14  15  25  28  32  33  34  35 0
 6-311+G(2d,p)
 ****
 36  39  40 0
 6-311+G(2d,p)
 ****
 1  2  3  4  5  16  17  18  19  20  21  22  23  24 0
 3-21G
 ****
 26  27  29  30  31  37  38  41  42  43  44  45  46  47 0
 3-21G
 ****
 48 0
 3-21G
 ****


