%nproc=1
%NoSave
%Mem=1900MB
#P OB98/GEN NMR

erre ene a

0 1
  C     -250.897      65.186      32.146
  O     -252.260      65.545      32.255
  H     -250.690      64.371      32.842
  H     -250.266      66.039      32.407
  H     -250.666      64.849      31.130
  P     -252.843      66.562      31.161
  C     -252.923      68.817      32.452
  O     -253.645      67.693      31.973
  C     -253.575      69.353      33.727
  O     -253.000      68.656      34.869
  C     -253.361      70.855      33.953
  O     -254.545      71.394      34.554
  C     -252.229      70.893      34.963
  O     -252.176      72.092      35.726
  C     -252.554      69.656      35.806
  N     -251.403      69.180      36.573
  C     -250.885      70.035      37.541
  O     -251.373      71.119      37.855
  N     -249.744      69.595      38.165
  C     -249.080      68.433      37.906
  O     -248.053      68.105      38.487
  C     -249.672      67.578      36.868
  C     -250.786      67.987      36.257
  O     -254.005      65.711      30.465
  O     -251.850      67.087      30.179
  H     -253.653      65.211      29.705
  H     -251.385      72.039      36.300
  H     -249.355      70.203      38.870
  H     -249.166      66.652      36.627
  H     -251.236      67.388      35.470
  H     -253.389      69.864      36.484
  H     -251.268      70.775      34.450
  H     -253.120      71.416      33.044
  H     -254.643      69.109      33.706
  H     -252.929      69.604      31.691
  H     -251.886      68.523      32.648
  P     -255.138      72.751      33.930
  C     -255.187      74.046      36.206
  O     -255.915      73.472      35.130
  O     -256.295      72.175      32.990
  O     -254.103      73.572      33.234
  H     -256.732      71.390      33.361
  H     -255.869      74.479      36.907
  H     -254.533      74.805      35.830
  H     -254.610      73.287      36.692

 6  7  8  9  10  11  12  13  14  15  16  27  31  32  33  34  35 0
 6-311+G(2d,p)
 ****
 36  37 0
 6-311+G(2d,p)
 ****
 1  2  3  4  5  17  18  19  20  21  22  23  24  25 0
 3-21G
 ****
 26  28  29  30  38  39  40  41  42  43  44  45 0
 3-21G
 ****


