%nproc=1
%NoSave
%Mem=1900MB
#P OB98/GEN NMR

erre ene a

0 1
  C     -458.578     -78.860     398.904
  O     -457.280     -78.495     398.471
  H     -459.092     -79.373     398.085
  H     -459.162     -77.975     399.175
  H     -458.515     -79.535     399.761
  P     -456.383     -77.588     399.440
  C     -457.157     -75.561     398.026
  O     -456.993     -76.109     399.330
  C     -458.453     -74.763     397.949
  O     -459.556     -75.553     398.439
  C     -458.437     -73.503     398.809
  O     -457.666     -72.489     398.198
  C     -459.920     -73.220     398.937
  O     -460.427     -72.570     397.763
  C     -460.495     -74.651     399.067
  N     -460.742     -75.037     400.454
  C     -462.085     -75.085     400.847
  O     -462.980     -74.821     400.044
  N     -462.367     -75.410     402.152
  C     -461.410     -75.676     402.981
  N     -461.761     -75.992     404.255
  C     -459.984     -75.652     402.603
  C     -459.725     -75.321     401.339
  O     -454.901     -77.661     399.252
  O     -456.826     -78.053     400.907
  H     -460.051     -71.668     397.775
  H     -456.271     -78.796     401.213
  H     -459.216     -75.886     403.322
  H     -458.703     -75.276     400.977
  H     -461.437     -74.738     398.514
  H     -460.131     -72.580     399.788
  H     -458.046     -73.737     399.807
  H     -458.648     -74.518     396.899
  H     -462.754     -75.989     404.474
  H     -457.188     -76.402     397.320
  H     -461.109     -76.305     404.960
  H     -456.304     -74.924     397.763
  P     -456.222     -72.097     398.776
  C     -456.568     -69.581     398.323
  O     -456.368     -70.591     399.311
  O     -455.078     -72.342     397.843
  O     -456.127     -72.952     400.128
  H     -455.973     -73.909     399.941
  H     -456.650     -68.627     398.800
  H     -457.467     -69.787     397.780
  H     -455.737     -69.572     397.649

 6  7  8  9  10  11  12  13  14  15  16  26  30  31  32  33  35 0
 6-311+G(2d,p)
 ****
 37  38 0
 6-311+G(2d,p)
 ****
 1  2  3  4  5  17  18  19  20  21  22  23  24  25 0
 3-21G
 ****
 27  28  29  34  36  39  40  41  42  43  44  45  46 0
 3-21G
 ****


