%nproc=1
%NoSave
%Mem=1900MB
#P OB98/GEN NMR

erre ene a

0 1
  C      143.242    -225.179    -337.819
  O      144.301    -225.410    -338.748
  P      145.457    -226.456    -338.382
  C      145.442    -227.661    -340.677
  O      145.268    -227.782    -339.266
  C      145.346    -229.039    -341.331
  O      146.344    -229.948    -340.812
  C      144.016    -229.738    -341.067
  O      142.872    -229.181    -341.693
  C      144.343    -231.186    -341.377
  O      144.262    -231.459    -342.773
  C      145.809    -231.285    -340.886
  N      145.930    -231.976    -339.600
  C      145.761    -233.360    -339.629
  O      145.485    -233.986    -340.652
  N      145.888    -233.995    -338.422
  C      146.123    -233.399    -337.216
  O      146.205    -234.022    -336.161
  C      146.260    -231.937    -337.244
  C      146.157    -231.298    -338.414
  O      145.683    -226.688    -336.927
  O      146.756    -225.786    -339.048
  H      144.352    -232.420    -342.891
  H      147.502    -225.907    -338.424
  H      145.780    -235.000    -338.428
  H      146.446    -231.433    -336.307
  H      146.266    -230.225    -338.454
  H      146.419    -231.834    -341.614
  H      143.647    -231.876    -340.879
  H      143.824    -229.679    -339.987
  H      145.534    -228.928    -342.406
  H      146.414    -227.207    -340.890
  H      144.683    -226.974    -341.068
  P      141.415    -229.198    -341.023
  C      141.303    -226.622    -341.293
  O      141.104    -227.737    -340.454
  O      141.064    -230.363    -340.161
  O      140.473    -229.242    -342.332
  H      139.675    -229.752    -342.115
  H      141.061    -225.708    -340.732
  H      140.653    -226.676    -342.164
  H      142.351    -226.569    -341.604
  H      142.564    -224.457    -338.223
  H      143.648    -224.812    -336.900
  H      142.720    -226.095    -337.638

 3  4  5  6  7  8  9  10  11  12  13  23  28  29  30  31  32 0
 6-311+G(2d,p)
 ****
 33  34 0
 6-311+G(2d,p)
 ****
 1  2  14  15  16  17  18  19  20  21  22  24  25  26  27 0
 3-21G
 ****
 35  36  37  38  39  40  41  42  43  44  45 0
 3-21G
 ****


