%nproc=1
%NoSave
%Mem=1900MB
#P OB98/GEN NMR

erre ene a

0 1
  C     1037.438     211.592    -144.817
  O     1036.870     211.662    -143.524
  H     1036.823     210.936    -145.435
  H     1038.450     211.181    -144.772
  H     1037.460     212.584    -145.276
  P     1037.656     212.477    -142.389
  C     1039.220     210.419    -142.347
  O     1039.122     211.833    -142.295
  C     1040.685     209.972    -142.277
  O     1041.308     210.593    -141.117
  C     1040.865     208.450    -142.133
  O     1042.108     208.102    -142.757
  C     1040.961     208.300    -140.627
  O     1041.453     207.035    -140.265
  C     1041.818     209.524    -140.285
  N     1041.770     209.861    -138.870
  C     1042.460     209.008    -138.007
  O     1043.054     208.021    -138.448
  N     1042.430     209.270    -136.656
  C     1041.725     210.256    -136.210
  N     1041.731     210.454    -134.864
  C     1040.935     211.149    -137.084
  C     1041.005     210.900    -138.390
  O     1036.947     212.619    -141.085
  O     1037.931     213.906    -143.062
  H     1041.347     206.877    -139.302
  H     1037.325     214.570    -142.683
  H     1040.345     211.947    -136.658
  H     1040.462     211.500    -139.110
  H     1042.864     209.361    -140.569
  H     1039.974     208.395    -140.167
  H     1040.045     207.883    -142.579
  H     1041.214     210.347    -143.159
  H     1042.276     209.814    -134.303
  H     1038.779     210.091    -143.291
  H     1041.200     211.172    -134.403
  H     1038.658     209.969    -141.522
  P     1042.227     207.747    -144.315
  C     1041.343     205.388    -143.746
  O     1041.278     206.493    -144.641
  O     1043.634     207.585    -144.795
  O     1041.515     208.958    -145.080
  H     1041.940     209.085    -145.946
  H     1040.668     204.625    -144.072
  H     1041.070     205.709    -142.762
  H     1042.340     205.000    -143.731

 6  7  8  9  10  11  12  13  14  15  16  26  30  31  32  33  35 0
 6-311+G(2d,p)
 ****
 37  38 0
 6-311+G(2d,p)
 ****
 1  2  3  4  5  17  18  19  20  21  22  23  24  25 0
 3-21G
 ****
 27  28  29  34  36  39  40  41  42  43  44  45  46 0
 3-21G
 ****


