%nproc=1
%NoSave
%Mem=1900MB
#P OB98/GEN NMR

erre ene a

0 1
  C     -228.007    -964.194    -597.780
  O     -229.036    -963.241    -597.487
  P     -229.172    -962.710    -595.971
  C     -229.019    -960.156    -596.312
  O     -228.371    -961.332    -595.832
  C     -228.284    -958.888    -595.816
  O     -228.149    -958.926    -594.371
  C     -226.891    -958.733    -596.416
  O     -226.649    -957.442    -596.986
  C     -225.954    -959.120    -595.262
  O     -224.644    -958.561    -595.378
  C     -226.768    -958.708    -594.018
  N     -226.356    -959.461    -592.833
  C     -226.033    -958.707    -591.704
  O     -225.991    -957.479    -591.694
  N     -225.652    -959.426    -590.602
  C     -225.540    -960.780    -590.527
  O     -225.178    -961.357    -589.501
  C     -225.839    -961.526    -591.756
  C     -226.231    -960.830    -592.836
  O     -228.910    -963.703    -594.904
  O     -230.710    -962.203    -595.926
  H     -224.728    -957.608    -595.553
  H     -231.073    -962.451    -595.047
  H     -225.440    -958.893    -589.766
  H     -225.726    -962.599    -591.749
  H     -226.449    -961.342    -593.769
  H     -226.633    -957.647    -593.800
  H     -225.857    -960.212    -595.275
  H     -226.715    -959.425    -597.246
  H     -228.908    -958.018    -596.078
  H     -230.041    -960.132    -595.964
  H     -229.058    -960.173    -597.404
  P     -226.840    -957.074    -598.530
  C     -229.091    -955.972    -597.907
  O     -228.403    -956.836    -598.780
  O     -226.180    -958.018    -599.501
  O     -226.187    -955.622    -598.661
  H     -225.702    -955.548    -599.487
  H     -230.174    -956.200    -597.963
  H     -228.956    -954.926    -598.164
  H     -228.793    -956.142    -596.849
  H     -228.042    -964.449    -598.819
  H     -228.158    -965.075    -597.191
  H     -227.052    -963.770    -597.549

 3  4  5  6  7  8  9  10  11  12  13  23  28  29  30  31  32 0
 6-311+G(2d,p)
 ****
 33  34 0
 6-311+G(2d,p)
 ****
 1  2  14  15  16  17  18  19  20  21  22  24  25  26  27 0
 3-21G
 ****
 35  36  37  38  39  40  41  42  43  44  45 0
 3-21G
 ****


