%nproc=1
%NoSave
%Mem=1900MB
#P OB98/GEN NMR

erre ene a

0 1
  C     -423.933     238.698    -445.745
  O     -424.402     240.051    -445.808
  P     -424.492     240.848    -444.412
  C     -423.907     243.047    -445.658
  O     -424.761     242.389    -444.734
  C     -424.555     244.345    -446.150
  O     -425.551     244.097    -447.175
  C     -425.293     245.104    -445.047
  O     -424.389     245.764    -444.184
  C     -426.173     246.044    -445.884
  O     -425.412     247.164    -446.349
  C     -426.554     245.144    -447.075
  N     -431.571     245.867    -447.787
  C     -430.499     246.665    -448.012
  N     -429.193     246.404    -447.791
  C     -429.036     245.159    -447.305
  C     -430.029     244.232    -447.028
  C     -431.350     244.622    -447.292
  N     -432.443     243.821    -447.043
  N     -429.486     243.060    -446.532
  C     -428.190     243.291    -446.489
  N     -427.867     244.541    -446.950
  O     -422.981     240.825    -443.878
  O     -425.437     240.224    -443.437
  H     -425.884     247.546    -447.122
  H     -422.902     240.215    -443.111
  H     -430.727     247.649    -448.420
  H     -427.441     242.589    -446.120
  H     -426.544     245.693    -448.027
  H     -427.024     246.430    -445.328
  H     -425.932     244.413    -444.473
  H     -423.774     244.990    -446.577
  H     -423.706     242.398    -446.522
  H     -433.365     244.212    -447.191
  H     -432.308     242.919    -446.595
  H     -422.945     243.248    -445.177
  P     -424.604     245.583    -442.601
  C     -422.172     246.382    -442.344
  O     -423.525     246.589    -441.957
  O     -423.960     244.151    -442.344
  O     -426.008     245.763    -442.138
  H     -423.091     244.052    -442.795
  H     -421.548     247.147    -441.865
  H     -422.070     246.480    -443.422
  H     -421.836     245.398    -442.011
  H     -423.918     238.279    -446.730
  H     -424.586     238.123    -445.123
  H     -422.944     238.682    -445.336

 3  4  5  6  7  8  9  10  11  12  22  25  29  30  31  32 0
 6-311+G(2d,p)
 ****
 33  36  37 0
 6-311+G(2d,p)
 ****
 1  2  13  14  15  16  17  18  19  20  21  23  24  26 0
 3-21G
 ****
 27  28  34  35  38  39  40  41  42  43  44  45  46  47  48 0
 3-21G
 ****


