%nproc=1
%NoSave
%Mem=1900MB
#P OB98/GEN NMR

erre ene a

0 1
  C     -133.559     222.732    -991.091
  O     -133.579     224.165    -991.007
  P     -133.365     224.887    -989.598
  C     -135.773     224.505    -988.715
  O     -134.384     224.249    -988.530
  C     -136.507     224.389    -987.378
  O     -135.749     225.001    -986.297
  C     -137.850     225.122    -987.363
  O     -138.876     224.574    -988.170
  C     -138.129     225.280    -985.883
  O     -138.712     224.109    -985.318
  C     -136.702     225.498    -985.321
  N     -136.425     226.889    -984.987
  C     -136.930     227.335    -983.771
  O     -137.606     226.645    -983.012
  N     -136.667     228.650    -983.447
  C     -135.986     229.542    -984.237
  O     -135.793     230.707    -983.920
  C     -135.491     229.014    -985.527
  C     -135.726     227.739    -985.835
  O     -133.320     226.369    -989.618
  O     -131.946     224.292    -989.109
  H     -139.350     223.756    -985.964
  H     -131.447     225.016    -988.699
  H     -137.017     228.997    -982.564
  H     -134.959     229.702    -986.176
  H     -135.381     227.335    -986.778
  H     -136.553     224.891    -984.409
  H     -138.818     226.109    -985.686
  H     -137.676     226.148    -987.761
  H     -136.635     223.335    -987.128
  H     -136.179     223.793    -989.434
  H     -135.893     225.505    -989.149
  P     -139.350     225.219    -989.548
  C     -141.773     225.987    -988.999
  O     -140.429     226.364    -989.251
  O     -139.650     224.285    -990.687
  O     -138.052     226.087    -989.968
  H     -137.985     226.095    -990.932
  H     -142.360     226.876    -988.826
  H     -141.835     225.344    -988.122
  H     -142.181     225.445    -989.871
  H     -133.718     222.432    -992.106
  H     -134.334     222.328    -990.474
  H     -132.610     222.368    -990.756

 3  4  5  6  7  8  9  10  11  12  13  23  28  29  30  31  32 0
 6-311+G(2d,p)
 ****
 33  34 0
 6-311+G(2d,p)
 ****
 1  2  14  15  16  17  18  19  20  21  22  24  25  26  27 0
 3-21G
 ****
 35  36  37  38  39  40  41  42  43  44  45 0
 3-21G
 ****


