%nproc=1
%NoSave
%Mem=1900MB
#P OB98/GEN NMR

erre ene a

0 1
  C     -291.705      12.212      49.416
  O     -291.187      11.336      48.436
  H     -291.683      11.734      50.400
  H     -291.085      13.113      49.451
  H     -292.731      12.497      49.166
  P     -291.940       9.930      48.251
  C     -290.190       8.664      49.705
  O     -291.544       9.071      49.550
  C     -290.020       7.988      51.062
  O     -288.645       8.088      51.496
  C     -290.852       8.620      52.173
  O     -292.196       8.162      52.177
  C     -290.101       8.132      53.402
  O     -290.424       6.755      53.654
  C     -288.641       8.263      52.941
  N     -285.932      10.888      56.407
  C     -286.318       9.594      56.355
  N     -287.020       8.969      55.388
  C     -287.318       9.815      54.390
  C     -286.985      11.160      54.302
  C     -286.260      11.702      55.376
  N     -285.892      13.027      55.449
  N     -287.484      11.706      53.134
  C     -288.088      10.706      52.525
  N     -288.042       9.550      53.261
  O     -291.122       9.209      47.080
  O     -293.405      10.003      47.983
  H     -289.782       6.428      54.314
  H     -291.624       8.447      46.734
  H     -286.027       8.982      57.205
  H     -288.580      10.768      51.563
  H     -287.993       7.489      53.369
  H     -290.357       8.695      54.303
  H     -290.808       9.714      52.138
  H     -290.258       6.923      50.949
  H     -289.545       9.547      49.651
  H     -285.508      13.354      56.323
  H     -286.258      13.671      54.762
  H     -289.924       7.971      48.904
  P     -293.355       9.267      52.284
  C     -294.127       8.139      54.495
  O     -293.764       9.347      53.836
  O     -294.609       8.533      51.610
  O     -293.037      10.570      51.627
  H     -295.188       9.179      51.163
  H     -294.372       8.349      55.515
  H     -293.307       7.453      54.459
  H     -294.975       7.707      54.006

 6  7  8  9  10  11  12  13  14  15  25  28  32  33  34  35 0
 6-311+G(2d,p)
 ****
 36  39  40 0
 6-311+G(2d,p)
 ****
 1  2  3  4  5  16  17  18  19  20  21  22  23  24 0
 3-21G
 ****
 26  27  29  30  31  37  38  41  42  43  44  45  46  47 0
 3-21G
 ****
 48 0
 3-21G
 ****


