%nproc=1
%NoSave
%Mem=1900MB
#P OB98/GEN NMR

erre ene a

0 1
  C     -184.750     164.071    -397.355
  O     -184.383     163.571    -398.625
  H     -185.617     164.728    -397.472
  H     -183.927     164.652    -396.933
  H     -185.016     163.253    -396.679
  P     -183.259     162.426    -398.652
  C     -181.464     164.106    -399.491
  O     -181.845     163.172    -398.492
  C     -179.998     163.912    -399.866
  O     -179.156     164.062    -398.697
  C     -179.675     162.539    -400.447
  O     -179.978     162.469    -401.836
  C     -178.176     162.479    -400.209
  O     -177.493     163.284    -401.194
  C     -178.054     163.120    -398.821
  N     -175.336     160.163    -395.723
  C     -174.923     160.994    -396.752
  N     -173.594     161.035    -396.992
  N     -175.733     161.716    -397.475
  C     -177.036     161.566    -397.133
  C     -177.570     160.775    -396.136
  C     -176.659     159.991    -395.333
  O     -176.970     159.255    -394.399
  N     -178.933     160.895    -396.076
  C     -179.227     161.736    -397.048
  N     -178.113     162.168    -397.722
  O     -183.251     161.949    -400.184
  O     -183.492     161.279    -397.727
  H     -176.549     163.276    -400.957
  H     -183.082     160.988    -400.212
  H     -174.669     159.621    -395.206
  H     -180.226     162.067    -397.301
  H     -177.124     163.688    -398.705
  H     -177.777     161.467    -400.291
  H     -172.919     160.468    -396.504
  H     -180.169     161.739    -399.886
  H     -173.261     161.660    -397.717
  H     -179.722     164.707    -400.575
  H     -181.609     165.120    -399.108
  H     -182.100     163.965    -400.372
  P     -180.678     161.127    -402.378
  C     -178.721     159.717    -403.343
  O     -179.570     159.973    -402.230
  O     -180.747     161.372    -403.962
  O     -182.017     160.834    -401.794
  H     -181.454     160.824    -404.351
  H     -178.040     158.929    -403.098
  H     -178.170     160.603    -403.583
  H     -179.314     159.427    -404.185

 6  7  8  9  10  11  12  13  14  15  26  29  33  34 0
 6-311+G(2d,p)
 ****
 36  38  39  40  41 0
 6-311+G(2d,p)
 ****
 1  2  3  4  5  16  17  18  19  20  21  22  23  24  25 0
 3-21G
 ****
 27  28  30  31  32  35  37  42  43  44  45  46  47 0
 3-21G
 ****
 48  49 0
 3-21G
 ****


