%nproc=1
%NoSave
%Mem=1900MB
#P OB98/GEN NMR

erre ene a

0 1
  C      328.237    -268.661    -262.786
  O      329.160    -269.633    -263.258
  P      330.257    -269.158    -264.331
  C      330.077    -267.905    -266.599
  O      329.430    -268.732    -265.638
  C      329.241    -267.804    -267.868
  O      327.890    -267.404    -267.546
  C      329.735    -266.778    -268.876
  O      330.790    -267.283    -269.676
  C      328.488    -266.568    -269.717
  O      328.338    -267.649    -270.655
  C      327.381    -266.625    -268.660
  N      324.610    -262.477    -269.758
  C      324.875    -263.592    -270.470
  N      325.635    -264.649    -270.111
  C      326.169    -264.460    -268.894
  C      326.014    -263.356    -268.072
  C      325.186    -262.329    -268.541
  N      324.883    -261.203    -267.805
  N      326.723    -263.519    -266.899
  C      327.288    -264.704    -267.008
  N      326.975    -265.318    -268.191
  O      330.951    -270.536    -264.767
  O      331.247    -268.165    -263.822
  H      329.120    -267.630    -271.237
  H      331.845    -270.360    -265.119
  H      324.414    -263.645    -271.453
  H      327.917    -265.162    -266.258
  H      326.481    -267.138    -269.025
  H      328.522    -265.643    -270.297
  H      330.013    -265.840    -268.387
  H      329.193    -268.801    -268.322
  H      331.046    -268.344    -266.845
  H      324.138    -260.611    -268.131
  H      325.147    -261.196    -266.824
  H      330.243    -266.914    -266.167
  P      331.885    -266.227    -270.190
  C      331.439    -263.954    -271.369
  O      331.133    -265.335    -271.283
  O      332.893    -267.129    -271.046
  O      332.577    -265.487    -269.090
  H      333.777    -266.717    -271.071
  H      331.091    -263.578    -272.334
  H      332.510    -263.781    -271.290
  H      330.918    -263.417    -270.568
  H      327.570    -269.114    -262.082
  H      327.676    -268.273    -263.610
  H      328.770    -267.864    -262.310

 3  4  5  6  7  8  9  10  11  12  22  25  29  30  31  32 0
 6-311+G(2d,p)
 ****
 33  36  37 0
 6-311+G(2d,p)
 ****
 1  2  13  14  15  16  17  18  19  20  21  23  24  26 0
 3-21G
 ****
 27  28  34  35  38  39  40  41  42  43  44  45  46  47  48 0
 3-21G
 ****


