%nproc=1
%NoSave
%Mem=1900MB
#P OB98/GEN NMR

erre ene a

0 1
  C      867.929      46.725     196.051
  O      867.460      47.798     196.874
  P      868.497      48.444     197.917
  C      870.950      49.179     197.369
  O      869.571      49.220     197.019
  C      871.675      50.399     196.802
  O      871.742      50.322     195.348
  C      870.995      51.722     197.100
  O      871.196      52.113     198.456
  C      871.655      52.633     196.071
  O      872.953      53.049     196.526
  C      871.806      51.682     194.859
  N      870.816      51.919     193.820
  C      871.159      52.872     192.860
  O      872.221      53.496     192.876
  N      870.235      53.091     191.876
  C      869.007      52.493     191.776
  O      868.228      52.731     190.862
  C      868.677      51.540     192.845
  C      869.576      51.299     193.809
  O      869.267      47.140     198.430
  O      867.825      49.248     198.980
  H      869.386      46.465     197.731
  H      873.422      53.401     195.742
  H      870.475      53.770     191.161
  H      867.701      51.064     192.820
  H      869.353      50.598     194.605
  H      872.804      51.794     194.415
  H      871.074      53.534     195.870
  H      869.914      51.647     196.893
  H      872.702      50.402     197.192
  H      871.415      48.267     196.972
  H      871.037      49.144     198.461
  P      869.981      51.843     199.474
  C      869.491      49.869     201.115
  O      870.100      50.309     199.921
  O      868.729      51.866     198.477
  O      869.905      52.842     200.592
  H      868.890      51.372     197.656
  H      869.375      48.783     201.075
  H      868.507      50.322     201.259
  H      870.134      50.122     201.970
  H      867.138      46.395     195.410
  H      868.248      45.913     196.671
  H      868.752      47.064     195.457

 3  4  5  6  7  8  9  10  11  12  13  24  28  29  30  31  32 0
 6-311+G(2d,p)
 ****
 33  34 0
 6-311+G(2d,p)
 ****
 1  2  14  15  16  17  18  19  20  21  22  23  25  26  27 0
 3-21G
 ****
 35  36  37  38  39  40  41  42  43  44  45 0
 3-21G
 ****


