%nproc=1
%NoSave
%Mem=1900MB
#P OB98/GEN NMR

erre ene a

0 1
  C     -133.356     104.356     415.104
  O     -132.226     104.289     414.229
  P     -132.264     103.273     412.991
  C     -132.158     100.725     412.589
  O     -132.027     101.777     413.536
  C     -131.831      99.370     413.228
  O     -130.420      99.304     413.602
  C     -132.642      99.110     414.511
  O     -132.929      97.711     414.648
  C     -131.680      99.505     415.611
  O     -132.036      98.910     416.858
  C     -130.359      99.015     415.017
  N     -127.257      99.147     419.094
  C     -128.287      98.320     418.771
  N     -129.049      98.338     417.658
  C     -128.654      99.313     416.820
  C     -127.623     100.218     417.010
  C     -126.908     100.116     418.221
  N     -125.878     100.969     418.561
  N     -127.517     101.079     415.937
  C     -128.502     100.723     415.129
  N     -129.192      99.649     415.609
  O     -131.424     103.655     411.816
  O     -133.821     103.253     412.599
  H     -131.444      99.289     417.542
  H     -133.904     103.266     411.624
  H     -128.529      97.564     419.509
  H     -128.763     101.227     414.208
  H     -130.237      97.929     415.128
  H     -131.683     100.594     415.733
  H     -133.584      99.667     414.566
  H     -131.999      98.577     412.493
  H     -131.488     100.908     411.741
  H     -125.509     100.889     419.495
  H     -125.705     101.782     417.986
  H     -133.172     100.738     412.175
  P     -134.423      97.336     415.122
  C     -135.388      96.129     417.232
  O     -134.274      96.692     416.580
  O     -135.181      96.531     414.117
  O     -135.054      98.783     415.394
  H     -134.513      99.366     415.957
  H     -135.049      95.636     418.144
  H     -135.874      95.388     416.591
  H     -136.102      96.913     417.496
  H     -133.170     105.078     415.872
  H     -133.520     103.397     415.548
  H     -134.222     104.644     414.546

 3  4  5  6  7  8  9  10  11  12  22  25  29  30  31  32 0
 6-311+G(2d,p)
 ****
 33  36  37 0
 6-311+G(2d,p)
 ****
 1  2  13  14  15  16  17  18  19  20  21  23  24  26 0
 3-21G
 ****
 27  28  34  35  38  39  40  41  42  43  44  45  46  47  48 0
 3-21G
 ****


