%nproc=1
%NoSave
%Mem=1900MB
#P OB98/GEN NMR

erre ene a

0 1
  C      417.308    -191.231    -108.970
  O      417.973    -192.359    -109.493
  H      417.562    -190.360    -109.581
  H      417.645    -191.050    -107.946
  H      416.223    -191.363    -108.981
  P      417.445    -193.815    -109.099
  C      418.388    -194.981    -111.202
  O      418.412    -194.901    -109.782
  C      419.560    -195.796    -111.742
  O      420.792    -195.074    -111.535
  C      419.713    -197.145    -111.033
  O      418.935    -198.192    -111.585
  C      421.206    -197.422    -111.202
  O      421.473    -198.111    -112.434
  C      421.827    -196.023    -111.226
  N      426.167    -195.734    -108.537
  C      425.943    -196.342    -109.760
  N      427.000    -196.979    -110.307
  N      424.784    -196.331    -110.364
  C      423.801    -195.741    -109.649
  C      423.899    -195.125    -108.420
  C      425.201    -195.075    -107.791
  O      425.454    -194.537    -106.721
  N      422.675    -194.672    -107.986
  C      421.832    -195.095    -108.906
  N      422.478    -195.675    -109.974
  O      416.097    -193.968    -109.957
  O      417.168    -194.029    -107.641
  H      420.937    -198.928    -112.447
  H      415.464    -194.528    -109.473
  H      427.086    -195.750    -108.133
  H      420.755    -194.964    -108.873
  H      422.585    -195.932    -112.013
  H      421.577    -198.063    -110.397
  H      427.888    -197.090    -109.844
  H      419.506    -197.046    -109.964
  H      426.829    -197.595    -111.105
  H      419.440    -195.925    -112.827
  H      418.444    -193.953    -111.570
  H      417.439    -195.401    -111.541
  P      418.758    -199.581    -110.813
  C      416.239    -200.125    -111.317
  O      417.604    -200.414    -111.531
  O      418.088    -199.138    -109.429
  O      420.014    -200.362    -110.603
  H      418.761    -199.079    -108.724
  H      415.638    -200.799    -111.891
  H      416.036    -199.119    -111.620
  H      416.009    -200.238    -110.278

 6  7  8  9  10  11  12  13  14  15  26  29  33  34 0
 6-311+G(2d,p)
 ****
 36  38  39  40  41 0
 6-311+G(2d,p)
 ****
 1  2  3  4  5  16  17  18  19  20  21  22  23  24  25 0
 3-21G
 ****
 27  28  30  31  32  35  37  42  43  44  45  46  47 0
 3-21G
 ****
 48  49 0
 3-21G
 ****


