%nproc=1
%NoSave
%Mem=1900MB
#P OB98/GEN NMR

erre ene a

0 1
  C      671.990     -26.506     445.737
  O      671.256     -25.641     446.581
  P      669.740     -25.253     446.219
  C      670.530     -23.138     444.994
  O      669.759     -24.330     444.907
  C      669.854     -22.006     444.217
  O      669.667     -22.376     442.838
  C      668.461     -21.640     444.729
  O      668.504     -20.944     445.954
  C      667.924     -20.845     443.539
  O      668.404     -19.502     443.570
  C      668.537     -21.615     442.345
  N      667.563     -22.469     441.686
  C      666.527     -21.809     441.014
  O      666.421     -20.587     441.074
  N      665.630     -22.569     440.292
  C      665.689     -23.868     440.346
  N      664.804     -24.558     439.568
  C      666.667     -24.589     441.173
  C      667.579     -23.839     441.793
  O      668.935     -24.711     447.354
  O      669.112     -26.623     445.673
  H      668.268     -26.789     446.130
  H      668.172     -19.097     442.714
  H      666.635     -25.674     441.233
  H      668.360     -24.295     442.399
  H      668.942     -20.906     441.621
  H      666.827     -20.806     443.546
  H      667.873     -22.559     444.845
  H      670.512     -21.126     444.257
  H      664.168     -24.022     439.000
  H      671.529     -23.327     444.583
  H      664.969     -25.522     439.291
  H      670.646     -22.855     446.049
  P      667.583     -21.499     447.141
  C      665.589     -20.043     446.359
  O      666.064     -21.346     446.676
  O      667.750     -20.393     448.285
  O      667.970     -22.865     447.640
  H      667.749     -20.821     449.160
  H      664.689     -20.144     445.742
  H      666.329     -19.472     445.801
  H      665.334     -19.523     447.287
  H      672.972     -26.647     446.138
  H      672.062     -26.075     444.760
  H      671.492     -27.451     445.674

 3  4  5  6  7  8  9  10  11  12  13  24  27  28  29  30  32 0
 6-311+G(2d,p)
 ****
 34  35 0
 6-311+G(2d,p)
 ****
 1  2  14  15  16  17  18  19  20  21  22  23  25  26 0
 3-21G
 ****
 31  33  36  37  38  39  40  41  42  43  44  45  46 0
 3-21G
 ****


