%nproc=1
%NoSave
%Mem=1900MB
#P OB98/GEN NMR

erre ene a

0 1
  C      137.551      47.117      59.233
  O      137.193      47.564      57.941
  H      138.612      47.319      59.391
  H      137.384      46.039      59.317
  H      136.976      47.643      59.999
  P      135.644      47.570      57.527
  C      135.618      45.071      56.886
  O      135.099      46.078      57.746
  C      134.718      43.839      56.926
  O      134.695      43.280      58.256
  C      133.261      44.124      56.571
  O      133.106      44.293      55.173
  C      132.585      42.885      57.144
  O      132.722      41.768      56.256
  C      133.399      42.664      58.442
  N      132.737      43.188      59.634
  C      131.509      42.622      59.962
  O      130.968      41.752      59.278
  N      130.909      43.103      61.098
  C      131.369      44.130      61.870
  O      130.766      44.560      62.850
  C      132.655      44.715      61.459
  C      133.269      44.224      60.379
  O      135.331      48.162      56.192
  O      134.941      48.387      58.711
  H      132.191      41.040      56.639
  H      134.773      49.304      58.424
  H      130.012      42.711      61.341
  H      133.045      45.535      62.045
  H      134.215      44.647      60.055
  H      133.582      41.593      58.596
  H      131.514      43.030      57.307
  H      132.901      45.006      57.114
  H      135.144      43.083      56.250
  H      136.622      44.799      57.229
  H      135.684      45.472      55.871
  P      132.142      45.428      54.591
  C      130.365      43.644      54.104
  O      130.630      44.895      54.725
  O      132.501      45.937      53.234
  O      132.211      46.597      55.685
  H      132.747      47.340      55.341
  H      129.338      43.383      54.251
  H      130.990      42.891      54.537
  H      130.568      43.716      53.056

 6  7  8  9  10  11  12  13  14  15  16  26  31  32  33  34  35 0
 6-311+G(2d,p)
 ****
 36  37 0
 6-311+G(2d,p)
 ****
 1  2  3  4  5  17  18  19  20  21  22  23  24  25 0
 3-21G
 ****
 27  28  29  30  38  39  40  41  42  43  44  45 0
 3-21G
 ****


