%nproc=1
%NoSave
%Mem=1900MB
#P OB98/GEN NMR

erre ene a

0 1
  C     -376.755     439.453       7.551
  O     -375.878     438.391       7.250
  H     -377.739     439.039       7.778
  H     -376.845     440.117       6.685
  H     -376.407     440.020       8.416
  P     -374.305     438.679       7.194
  C     -373.751     436.758       5.559
  O     -373.579     437.286       6.867
  C     -374.153     435.279       5.618
  O     -375.513     435.181       6.111
  C     -374.130     434.635       4.229
  O     -373.867     433.235       4.288
  C     -375.554     434.849       3.738
  O     -375.942     433.923       2.722
  C     -376.344     434.708       5.035
  N     -381.362     434.552       4.135
  C     -380.389     433.620       3.828
  N     -380.814     432.495       3.200
  N     -379.120     433.783       4.091
  C     -378.835     434.981       4.654
  C     -379.702     435.993       4.986
  C     -381.113     435.788       4.722
  O     -382.013     436.589       4.954
  N     -379.043     437.066       5.534
  C     -377.775     436.705       5.527
  N     -377.597     435.435       5.028
  O     -373.912     438.920       8.729
  O     -373.887     439.832       6.334
  H     -375.316     434.025       1.983
  H     -373.087     439.433       8.793
  H     -382.327     434.366       3.938
  H     -376.953     437.311       5.888
  H     -376.580     433.653       5.232
  H     -375.618     435.849       3.306
  H     -381.741     432.424       2.810
  H     -373.409     435.104       3.560
  H     -380.098     431.965       2.695
  H     -373.517     434.745       6.336
  H     -372.799     436.878       5.037
  H     -374.498     437.340       5.011
  P     -372.626     432.655       3.454
  C     -373.208     430.276       2.443
  O     -372.652     431.057       3.482
  O     -371.359     433.029       4.353
  O     -372.507     433.197       2.065
  H     -370.784     433.662       3.882
  H     -373.109     429.238       2.685
  H     -372.692     430.480       1.528
  H     -374.244     430.519       2.329

 6  7  8  9  10  11  12  13  14  15  26  29  33  34 0
 6-311+G(2d,p)
 ****
 36  38  39  40  41 0
 6-311+G(2d,p)
 ****
 1  2  3  4  5  16  17  18  19  20  21  22  23  24  25 0
 3-21G
 ****
 27  28  30  31  32  35  37  42  43  44  45  46  47 0
 3-21G
 ****
 48  49 0
 3-21G
 ****


