%nproc=1
%NoSave
%Mem=1900MB
#P OB98/GEN NMR

erre ene a

0 1
  C      661.313    -170.040     345.229
  O      660.404    -170.660     346.120
  H      662.008    -170.793     344.865
  H      661.882    -169.254     345.739
  H      660.774    -169.614     344.372
  P      659.313    -169.745     346.864
  C      657.551    -171.647     346.926
  O      658.367    -170.750     347.676
  C      656.508    -172.308     347.821
  O      657.153    -173.149     348.810
  C      655.652    -171.323     348.619
  O      654.687    -170.715     347.778
  C      655.090    -172.246     349.698
  O      654.014    -173.036     349.187
  C      656.329    -173.133     350.006
  N      657.095    -172.675     351.148
  C      656.549    -172.947     352.420
  O      655.455    -173.517     352.497
  N      657.235    -172.536     353.541
  C      658.385    -171.949     353.417
  N      659.016    -171.579     354.566
  C      659.019    -171.686     352.110
  C      658.335    -172.050     351.036
  O      658.582    -168.760     346.006
  O      660.147    -169.013     348.016
  H      653.863    -173.755     349.842
  H      660.459    -168.141     347.712
  H      660.005    -171.190     352.056
  H      658.728    -171.890     350.034
  H      656.018    -174.163     350.196
  H      654.706    -171.688     350.551
  H      656.279    -170.562     349.093
  H      655.888    -172.956     347.193
  H      658.552    -171.796     355.433
  H      658.218    -172.405     346.496
  H      659.976    -171.267     354.611
  H      657.058    -171.117     346.101
  P      654.303    -169.170     347.925
  C      654.564    -168.632     345.423
  O      653.656    -168.745     346.505
  O      655.388    -168.281     348.408
  O      653.001    -169.190     348.883
  H      653.291    -169.333     349.831
  H      654.032    -168.348     344.539
  H      655.046    -169.574     345.262
  H      655.300    -167.889     345.651

 6  7  8  9  10  11  12  13  14  15  16  26  30  31  32  33  35 0
 6-311+G(2d,p)
 ****
 37  38 0
 6-311+G(2d,p)
 ****
 1  2  3  4  5  17  18  19  20  21  22  23  24  25 0
 3-21G
 ****
 27  28  29  34  36  39  40  41  42  43  44  45  46 0
 3-21G
 ****


