%nproc=1
%NoSave
%Mem=1900MB
#P OB98/GEN NMR

erre ene a

0 1
  C      113.564      59.770    -153.638
  O      113.375      58.443    -154.087
  H      112.814      59.988    -152.872
  H      113.428      60.471    -154.466
  H      114.558      59.894    -153.200
  P      114.409      57.830    -155.148
  C      116.492      57.713    -153.645
  O      115.478      56.973    -154.308
  C      117.346      56.793    -152.773
  O      118.584      57.475    -152.449
  C      116.671      56.392    -151.457
  O      117.009      55.035    -151.169
  C      117.320      57.307    -150.436
  O      117.310      56.748    -149.123
  C      118.723      57.479    -151.015
  N      119.606      60.381    -146.975
  C      119.014      59.136    -147.066
  N      118.568      58.588    -145.916
  N      118.870      58.485    -148.190
  C      119.376      59.144    -149.263
  C      119.982      60.377    -149.302
  C      120.123      61.094    -148.052
  O      120.625      62.204    -147.910
  N      120.336      60.716    -150.584
  C      119.942      59.691    -151.317
  N      119.344      58.716    -150.563
  O      115.016      58.816    -156.094
  O      113.563      56.712    -155.914
  H      116.371      56.682    -148.846
  H      113.253      57.045    -156.777
  H      119.682      60.842    -146.085
  H      120.057      59.608    -152.390
  H      119.397      56.662    -150.728
  H      116.786      58.265    -150.406
  H      118.659      59.024    -145.011
  H      115.583      56.508    -151.483
  H      118.151      57.665    -145.956
  H      117.615      55.908    -153.362
  H      116.011      58.472    -153.019
  H      117.121      58.215    -154.389
  P      115.833      54.005    -150.813
  C      115.757      52.824    -153.103
  O      116.029      52.690    -151.711
  O      114.453      54.576    -150.812
  O      116.247      53.489    -149.349
  H      115.434      53.261    -148.855
  H      115.923      51.886    -153.591
  H      116.405      53.564    -153.523
  H      114.739      53.122    -153.240

 6  7  8  9  10  11  12  13  14  15  26  29  33  34 0
 6-311+G(2d,p)
 ****
 36  38  39  40  41 0
 6-311+G(2d,p)
 ****
 1  2  3  4  5  16  17  18  19  20  21  22  23  24  25 0
 3-21G
 ****
 27  28  30  31  32  35  37  42  43  44  45  46  47 0
 3-21G
 ****
 48  49 0
 3-21G
 ****


