%nproc=1
%NoSave
%Mem=1900MB
#P OB98/GEN NMR

erre ene a

0 1
  C      351.782    -149.538      96.558
  O      352.624    -150.564      97.053
  H      351.189    -149.138      97.386
  H      351.100    -149.928      95.796
  H      352.384    -148.727      96.134
  P      353.484    -151.412      96.001
  C      352.773    -153.877      95.629
  O      352.473    -152.504      95.397
  C      352.702    -154.183      97.123
  O      351.472    -153.679      97.679
  C      352.713    -155.677      97.430
  O      354.018    -156.212      97.291
  C      352.153    -155.687      98.837
  O      353.153    -155.346      99.803
  C      351.072    -154.580      98.742
  N      349.730    -155.111      98.510
  C      349.137    -155.779      99.587
  O      349.735    -155.889     100.657
  N      347.890    -156.323      99.408
  C      347.279    -156.199      98.271
  N      346.050    -156.763      98.166
  C      347.869    -155.490      97.113
  C      349.085    -154.977      97.301
  O      354.785    -151.979      96.492
  O      353.697    -150.398      94.779
  H      353.853    -156.026      99.708
  H      354.510    -149.873      94.905
  H      347.318    -155.406      96.189
  H      349.584    -154.441      96.503
  H      351.052    -153.985      99.666
  H      351.752    -156.665      99.105
  H      352.009    -156.204      96.775
  H      353.533    -153.671      97.624
  H      345.691    -157.253      98.979
  H      353.788    -154.052      95.256
  H      345.445    -156.657      97.359
  H      352.082    -154.522      95.073
  P      354.237    -157.729      96.823
  C      354.897    -159.341      98.722
  O      353.836    -158.628      98.093
  O      355.565    -158.027      96.218
  O      353.008    -157.975      95.819
  H      353.152    -157.519      94.949
  H      354.510    -159.900      99.549
  H      355.633    -158.648      99.073
  H      355.344    -160.010      98.017

 6  7  8  9  10  11  12  13  14  15  16  26  30  31  32  33  35 0
 6-311+G(2d,p)
 ****
 37  38 0
 6-311+G(2d,p)
 ****
 1  2  3  4  5  17  18  19  20  21  22  23  24  25 0
 3-21G
 ****
 27  28  29  34  36  39  40  41  42  43  44  45  46 0
 3-21G
 ****


