%nproc=1
%NoSave
%Mem=1900MB
#P OB98/GEN NMR

erre ene a

0 1
  C     -337.891    -719.926    -277.462
  O     -336.963    -720.767    -276.796
  H     -338.896    -720.297    -277.268
  H     -337.710    -719.956    -278.543
  H     -337.800    -718.902    -277.095
  P     -335.412    -720.415    -276.992
  C     -335.241    -721.680    -274.729
  O     -334.610    -721.355    -275.964
  C     -334.383    -722.683    -273.952
  O     -333.018    -722.202    -273.840
  C     -334.867    -722.956    -272.544
  O     -335.912    -723.913    -272.518
  C     -333.593    -723.463    -271.868
  O     -333.364    -724.848    -272.180
  C     -332.527    -722.571    -272.522
  N     -330.666    -720.837    -268.152
  C     -330.790    -722.119    -268.611
  N     -330.421    -723.102    -267.768
  N     -331.264    -722.436    -269.797
  C     -331.636    -721.344    -270.525
  C     -331.545    -720.026    -270.186
  C     -330.999    -719.697    -268.877
  O     -330.806    -718.560    -268.430
  N     -332.003    -719.206    -271.192
  C     -332.399    -720.061    -272.119
  N     -332.207    -721.372    -271.756
  O     -335.282    -718.960    -276.334
  O     -334.916    -720.427    -278.402
  H     -334.089    -725.384    -271.805
  H     -334.569    -718.466    -276.791
  H     -330.295    -720.656    -267.240
  H     -332.826    -719.765    -273.083
  H     -331.577    -723.095    -272.667
  H     -333.654    -723.373    -270.787
  H     -330.383    -722.960    -266.766
  H     -335.201    -722.016    -272.042
  H     -330.532    -724.061    -268.097
  H     -334.354    -723.613    -274.540
  H     -336.225    -722.128    -274.933
  H     -335.378    -720.770    -274.152
  P     -337.073    -723.748    -271.433
  C     -338.722    -724.700    -273.203
  O     -338.254    -724.760    -271.864
  O     -337.686    -722.307    -271.746
  O     -336.624    -723.881    -270.009
  H     -338.216    -721.987    -270.990
  H     -339.499    -725.423    -273.342
  H     -337.915    -724.911    -273.873
  H     -339.105    -723.721    -273.403

 6  7  8  9  10  11  12  13  14  15  26  29  33  34 0
 6-311+G(2d,p)
 ****
 36  38  39  40  41 0
 6-311+G(2d,p)
 ****
 1  2  3  4  5  16  17  18  19  20  21  22  23  24  25 0
 3-21G
 ****
 27  28  30  31  32  35  37  42  43  44  45  46  47 0
 3-21G
 ****
 48  49 0
 3-21G
 ****


