%nproc=1
%NoSave
%Mem=1900MB
#P OB98/GEN NMR

erre ene a

0 1
  C      298.347    -899.233      76.315
  O      298.291    -898.123      77.208
  P      297.445    -896.823      76.846
  C      298.748    -896.423      74.663
  O      298.360    -895.883      75.907
  C      298.889    -895.313      73.611
  O      297.657    -894.593      73.473
  C      299.929    -894.273      73.959
  O      301.257    -894.753      73.796
  C      299.551    -893.133      73.014
  O      300.062    -893.383      71.694
  C      298.010    -893.253      73.024
  N      297.374    -892.213      73.823
  C      297.206    -890.973      73.210
  O      297.668    -890.773      72.095
  N      296.531    -889.993      73.895
  C      296.179    -890.193      75.126
  N      295.478    -889.213      75.745
  C      296.482    -891.443      75.854
  C      297.056    -892.413      75.144
  O      296.803    -896.133      77.986
  O      296.340    -897.363      75.805
  H      295.458    -897.043      76.089
  H      299.583    -892.773      71.088
  H      296.242    -891.523      76.905
  H      297.296    -893.373      75.610
  H      297.611    -893.183      71.991
  H      299.928    -892.163      73.340
  H      299.792    -893.933      74.997
  H      299.119    -895.793      72.656
  H      295.263    -888.383      75.207
  H      297.986    -897.133      74.322
  H      294.889    -889.393      76.553
  H      299.693    -896.963      74.785
  P      302.279    -894.473      75.002
  C      302.693    -891.953      74.473
  O      303.235    -893.253      74.540
  O      303.243    -895.743      74.985
  O      301.639    -894.283      76.340
  H      303.487    -895.983      75.905
  H      303.520    -891.243      74.506
  H      302.041    -891.753      75.337
  H      302.135    -891.853      73.551
  H      298.962    -900.000      76.737
  H      298.761    -898.918      75.380
  H      297.360    -899.614      76.157

 3  4  5  6  7  8  9  10  11  12  13  24  27  28  29  30  32 0
 6-311+G(2d,p)
 ****
 34  35 0
 6-311+G(2d,p)
 ****
 1  2  14  15  16  17  18  19  20  21  22  23  25  26 0
 3-21G
 ****
 31  33  36  37  38  39  40  41  42  43  44  45  46 0
 3-21G
 ****


