%nproc=1
%NoSave
%Mem=1900MB
#P OB98/GEN NMR

erre ene a

0 1
  C     -111.141    -254.078    -465.000
  O     -110.307    -254.681    -465.967
  H     -112.185    -254.258    -465.274
  H     -110.964    -252.998    -464.982
  H     -110.957    -254.503    -464.009
  P     -108.734    -254.710    -465.645
  C     -108.188    -257.187    -466.202
  O     -108.390    -256.212    -465.190
  C     -108.975    -258.454    -465.879
  O     -110.397    -258.193    -465.948
  C     -108.708    -259.615    -466.826
  O     -107.531    -260.329    -466.471
  C     -109.952    -260.460    -466.591
  O     -109.826    -261.179    -465.345
  C     -111.042    -259.387    -466.477
  N     -114.762    -260.621    -469.691
  C     -114.395    -261.204    -468.492
  N     -115.116    -262.274    -468.097
  N     -113.405    -260.781    -467.749
  C     -112.765    -259.708    -468.274
  C     -113.039    -259.044    -469.450
  C     -114.139    -259.517    -470.257
  O     -114.522    -259.024    -471.315
  N     -112.178    -257.994    -469.642
  C     -111.375    -258.035    -468.594
  N     -111.687    -259.062    -467.737
  O     -108.620    -253.879    -464.281
  O     -107.854    -254.138    -466.704
  H     -109.087    -261.804    -465.457
  H     -107.788    -253.368    -464.290
  H     -115.524    -260.997    -470.231
  H     -110.561    -257.346    -468.412
  H     -111.833    -259.670    -465.774
  H     -110.111    -261.203    -467.372
  H     -115.855    -262.684    -468.645
  H     -108.683    -259.287    -467.873
  H     -114.888    -262.698    -467.207
  H     -108.746    -258.739    -464.843
  H     -107.119    -257.429    -466.260
  H     -108.514    -256.776    -467.161
  P     -106.135    -259.821    -467.091
  C     -105.157    -259.089    -464.799
  O     -105.609    -258.685    -466.089
  O     -106.599    -258.986    -468.379
  O     -105.170    -260.898    -467.438
  H     -105.867    -258.941    -469.027
  H     -104.839    -258.229    -464.247
  H     -104.337    -259.768    -464.905
  H     -105.956    -259.573    -464.277

 6  7  8  9  10  11  12  13  14  15  26  29  33  34 0
 6-311+G(2d,p)
 ****
 36  38  39  40  41 0
 6-311+G(2d,p)
 ****
 1  2  3  4  5  16  17  18  19  20  21  22  23  24  25 0
 3-21G
 ****
 27  28  30  31  32  35  37  42  43  44  45  46  47 0
 3-21G
 ****
 48  49 0
 3-21G
 ****


