%nproc=1
%NoSave
%Mem=1900MB
#P OB98/GEN NMR

erre ene a

0 1
  C     -894.880    -744.385    -892.170
  O     -896.220    -744.686    -892.410
  H     -894.700    -744.357    -891.100
  H     -894.270    -745.184    -892.600
  H     -894.620    -743.444    -892.630
  P     -897.310    -743.576    -892.000
  C     -897.580    -742.824    -894.460
  O     -897.220    -742.434    -893.120
  C     -897.760    -741.592    -895.350
  O     -898.840    -740.752    -894.730
  C     -896.480    -740.724    -895.510
  O     -896.460    -740.195    -896.820
  C     -896.720    -739.580    -894.520
  O     -896.010    -738.440    -894.870
  C     -898.270    -739.440    -894.550
  N     -899.180    -734.914    -892.340
  C     -898.780    -735.272    -893.590
  N     -898.520    -736.471    -894.090
  C     -898.810    -737.418    -893.190
  C     -899.320    -737.242    -891.890
  C     -899.450    -735.906    -891.480
  N     -899.880    -735.559    -890.180
  N     -899.500    -738.522    -891.260
  C     -899.150    -739.387    -892.230
  N     -898.770    -738.754    -893.410
  O     -896.600    -742.854    -890.730
  O     -898.670    -744.053    -891.620
  H     -895.040    -738.571    -894.750
  H     -896.740    -743.419    -889.940
  H     -898.540    -734.375    -894.210
  H     -899.200    -740.437    -892.080
  H     -898.560    -738.797    -895.450
  H     -896.430    -739.895    -893.490
  H     -895.590    -741.281    -895.210
  H     -898.180    -741.914    -896.340
  H     -898.520    -743.406    -894.460
  H     -899.900    -734.619    -889.960
  H     -900.000    -736.297    -889.510
  H     -896.800    -743.457    -894.860
  P     -895.750    -741.149    -897.900
  C     -897.980    -741.427    -899.210
  O     -896.910    -742.075    -898.590
  O     -894.890    -742.181    -897.030
  O     -894.890    -740.395    -898.870
  H     -893.990    -742.235    -897.390
  H     -898.653    -742.155    -899.612
  H     -897.612    -740.806    -900.000
  H     -898.495    -740.823    -898.493

 6  7  8  9  10  11  12  13  14  15  25  28  32  33  34  35 0
 6-311+G(2d,p)
 ****
 36  39  40 0
 6-311+G(2d,p)
 ****
 1  2  3  4  5  16  17  18  19  20  21  22  23  24 0
 3-21G
 ****
 26  27  29  30  31  37  38  41  42  43  44  45  46  47 0
 3-21G
 ****
 48 0
 3-21G
 ****


