%nproc=1
%NoSave
%Mem=1900MB
#P OB98/GEN NMR

erre ene a

0 1
  C     -195.975    -185.122    -606.135
  O     -194.991    -185.711    -606.982
  P     -195.290    -187.159    -607.602
  C     -193.048    -188.343    -607.116
  O     -193.900    -187.795    -608.110
  C     -191.610    -188.474    -607.645
  O     -190.888    -187.251    -607.316
  C     -190.788    -189.615    -607.026
  O     -190.840    -190.895    -607.655
  C     -189.367    -189.095    -607.216
  O     -188.909    -189.391    -608.549
  C     -189.510    -187.587    -607.051
  N     -185.721    -185.594    -604.231
  C     -185.794    -185.943    -605.536
  N     -186.839    -186.466    -606.207
  C     -187.904    -186.615    -605.399
  C     -187.979    -186.299    -604.052
  C     -186.823    -185.771    -603.460
  N     -186.749    -185.423    -602.127
  N     -189.234    -186.594    -603.558
  C     -189.893    -187.097    -604.585
  N     -189.134    -187.116    -605.722
  O     -196.421    -187.239    -608.570
  O     -195.599    -188.038    -606.292
  H     -188.662    -190.335    -608.551
  H     -196.311    -188.677    -606.502
  H     -184.888    -185.786    -606.114
  H     -190.909    -187.457    -604.548
  H     -188.895    -187.024    -607.768
  H     -188.653    -189.566    -606.527
  H     -191.007    -189.721    -605.959
  H     -191.630    -188.570    -608.733
  H     -193.419    -189.336    -606.825
  H     -185.870    -185.091    -601.771
  H     -187.545    -185.596    -601.523
  H     -193.117    -187.713    -606.229
  P     -191.332    -192.195    -606.859
  C     -189.247    -193.694    -606.363
  O     -190.289    -193.356    -607.243
  O     -192.761    -192.552    -607.053
  O     -190.931    -191.845    -605.343
  H     -189.976    -191.813    -605.183
  H     -188.792    -194.634    -606.702
  H     -189.626    -193.841    -605.343
  H     -188.483    -192.912    -606.370
  H     -195.633    -184.164    -605.803
  H     -196.142    -185.755    -605.288
  H     -196.889    -185.005    -606.678

 3  4  5  6  7  8  9  10  11  12  22  25  29  30  31  32 0
 6-311+G(2d,p)
 ****
 33  36  37 0
 6-311+G(2d,p)
 ****
 1  2  13  14  15  16  17  18  19  20  21  23  24  26 0
 3-21G
 ****
 27  28  34  35  38  39  40  41  42  43  44  45  46  47  48 0
 3-21G
 ****


