%nproc=1
%NoSave
%Mem=1900MB
#P OB98/GEN NMR

erre ene a

0 1
  C     -113.232     -21.990     -67.707
  O     -113.389     -23.044     -68.641
  P     -113.996     -22.686     -70.085
  C     -116.404     -23.205     -69.237
  O     -115.528     -22.272     -69.850
  C     -117.861     -22.864     -69.561
  O     -118.147     -21.534     -69.058
  C     -118.207     -22.869     -71.054
  O     -119.572     -23.289     -71.166
  C     -118.092     -21.404     -71.435
  O     -118.816     -21.086     -72.620
  C     -118.618     -20.740     -70.169
  N     -119.991     -15.880     -69.876
  C     -120.761     -17.005     -70.112
  N     -122.091     -16.805     -70.227
  N     -120.271     -18.212     -70.223
  C     -118.926     -18.255     -70.069
  C     -118.053     -17.213     -69.870
  C     -118.611     -15.889     -69.712
  O     -117.977     -14.878     -69.416
  N     -116.753     -17.641     -69.853
  C     -116.846     -18.951     -69.959
  N     -118.145     -19.376     -70.045
  O     -114.094     -24.115     -70.794
  O     -113.214     -21.696     -70.889
  H     -118.555     -20.184     -72.896
  H     -113.299     -24.295     -71.333
  H     -120.426     -14.978     -69.782
  H     -116.015     -19.638     -69.972
  H     -119.715     -20.715     -70.131
  H     -117.039     -21.149     -71.607
  H     -122.539     -15.909     -70.123
  H     -117.558     -23.515     -71.652
  H     -122.682     -17.617     -70.369
  H     -118.507     -23.565     -69.016
  H     -116.268     -23.159     -68.152
  H     -116.158     -24.217     -69.574
  P     -119.961     -24.256     -72.383
  C     -121.357     -22.342     -73.429
  O     -120.369     -23.333     -73.625
  O     -121.363     -24.876     -71.911
  O     -118.971     -25.339     -72.665
  H     -121.453     -25.783     -72.258
  H     -121.238     -21.571     -74.194
  H     -121.272     -21.876     -72.442
  H     -122.349     -22.791     -73.532
  H     -112.820     -22.377     -66.798
  H     -114.185     -21.546     -67.506
  H     -112.572     -21.251     -68.111

 3  4  5  6  7  8  9  10  11  12  23  26  30  31 0
 6-311+G(2d,p)
 ****
 33  35  36  37  38 0
 6-311+G(2d,p)
 ****
 1  2  13  14  15  16  17  18  19  20  21  22  24  25 0
 3-21G
 ****
 27  28  29  32  34  39  40  41  42  43  44  45  46  47  48  49 0
 3-21G
 ****


