%nproc=1
%NoSave
%Mem=1900MB
#P OB98/GEN NMR

erre ene a

0 1
  C       -4.401     257.224    -121.773
  O       -5.240     258.171    -122.401
  H       -4.558     257.279    -120.694
  H       -3.356     257.458    -121.987
  H       -4.630     256.209    -122.107
  P       -5.428     258.106    -123.990
  C       -4.031     260.260    -124.224
  O       -5.254     259.608    -124.530
  C       -3.851     261.513    -125.087
  O       -3.756     261.111    -126.484
  C       -5.008     262.517    -124.977
  O       -4.458     263.826    -125.179
  C       -5.873     262.122    -126.156
  O       -6.783     263.143    -126.496
  C       -4.802     261.795    -127.200
  N       -5.325     260.996    -128.307
  C       -6.113     261.663    -129.236
  O       -6.402     262.856    -129.142
  N       -6.604     260.906    -130.263
  C       -6.437     259.560    -130.410
  O       -6.927     258.924    -131.334
  C       -5.630     258.898    -129.372
  C       -5.116     259.634    -128.385
  O       -6.657     257.410    -124.469
  O       -4.095     257.392    -124.517
  H       -6.302     263.976    -126.690
  H       -4.284     256.889    -125.332
  H       -7.169     261.377    -130.951
  H       -5.487     257.829    -129.455
  H       -4.518     259.175    -127.606
  H       -4.376     262.716    -127.620
  H       -6.461     261.228    -125.921
  H       -5.532     262.466    -124.021
  H       -2.894     261.983    -124.828
  H       -3.215     259.556    -124.418
  H       -4.018     260.535    -123.165
  P       -3.811     264.674    -123.980
  C       -6.133     265.631    -123.408
  O       -4.763     265.926    -123.662
  O       -2.376     265.033    -124.188
  O       -3.979     263.743    -122.687
  H       -3.271     263.940    -122.047
  H       -6.663     266.539    -123.210
  H       -6.207     264.983    -122.560
  H       -6.558     265.149    -124.263

 6  7  8  9  10  11  12  13  14  15  16  26  31  32  33  34  35 0
 6-311+G(2d,p)
 ****
 36  37 0
 6-311+G(2d,p)
 ****
 1  2  3  4  5  17  18  19  20  21  22  23  24  25 0
 3-21G
 ****
 27  28  29  30  38  39  40  41  42  43  44  45 0
 3-21G
 ****


