%nproc=1
%NoSave
%Mem=1900MB
#P OB98/GEN NMR

erre ene a

0 1
  C      -41.338     525.139     612.799
  O      -41.752     526.514     612.829
  P      -42.757     527.041     613.967
  C      -44.843     526.108     612.822
  O      -44.050     526.088     614.009
  C      -46.356     526.042     613.104
  O      -46.799     527.170     613.893
  C      -47.248     525.999     611.853
  O      -48.370     525.185     612.204
  C      -47.646     527.454     611.689
  O      -48.801     527.613     610.865
  C      -47.829     527.865     613.161
  N      -47.729     529.318     613.329
  C      -48.934     530.035     613.354
  O      -50.005     529.454     613.153
  N      -48.889     531.387     613.535
  C      -47.744     531.988     613.601
  N      -47.774     533.344     613.745
  C      -46.449     531.301     613.504
  C      -46.520     529.975     613.388
  O      -43.057     528.500     613.897
  O      -41.997     526.678     615.339
  H      -49.027     528.571     610.845
  H      -42.243     527.337     616.024
  H      -45.511     531.834     613.534
  H      -45.623     529.359     613.318
  H      -48.799     527.526     613.548
  H      -46.824     528.024     611.223
  H      -46.744     525.603     610.961
  H      -46.529     525.146     613.715
  H      -48.677     533.800     613.784
  H      -44.561     525.256     612.189
  H      -46.942     533.928     613.697
  H      -44.614     527.015     612.255
  P      -48.403     523.600     611.960
  C      -48.708     523.961     609.428
  O      -47.927     523.364     610.440
  O      -49.676     522.932     612.317
  O      -47.182     523.035     612.834
  H      -47.308     522.071     612.954
  H      -48.186     523.914     608.476
  H      -48.916     525.028     609.663
  H      -49.667     523.439     609.346
  H      -40.674     524.984     611.974
  H      -42.197     524.510     612.689
  H      -40.835     524.898     613.712

 3  4  5  6  7  8  9  10  11  12  13  23  27  28  29  30  32 0
 6-311+G(2d,p)
 ****
 34  35 0
 6-311+G(2d,p)
 ****
 1  2  14  15  16  17  18  19  20  21  22  24  25  26 0
 3-21G
 ****
 31  33  36  37  38  39  40  41  42  43  44  45  46 0
 3-21G
 ****


