%nproc=1
%NoSave
%Mem=1900MB
#P OB98/GEN NMR

erre ene a

0 1
  C       10.655    -243.277    -289.317
  O       10.421    -244.555    -289.873
  H       11.532    -242.839    -289.798
  H       10.848    -243.365    -288.245
  H        9.795    -242.624    -289.486
  P        9.105    -245.332    -289.388
  C       10.165    -246.789    -287.508
  O        9.605    -246.746    -288.809
  C       10.864    -248.132    -287.289
  O        9.875    -249.193    -287.399
  C       11.962    -248.420    -288.319
  O       13.037    -249.109    -287.674
  C       11.277    -249.344    -289.309
  O       12.176    -250.161    -290.047
  C       10.356    -250.139    -288.377
  N        9.242    -250.763    -289.084
  C        9.264    -252.146    -289.226
  O       10.116    -252.886    -288.734
  N        8.250    -252.683    -289.978
  C        7.256    -251.987    -290.601
  O        6.387    -252.524    -291.279
  C        7.288    -250.530    -290.424
  C        8.264    -249.992    -289.686
  O        8.386    -245.734    -290.760
  O        8.207    -244.572    -288.471
  H        7.764    -245.033    -291.037
  H       12.816    -250.551    -289.415
  H        8.252    -253.685    -290.087
  H        6.521    -249.943    -290.911
  H        8.324    -248.919    -289.546
  H       10.927    -250.904    -287.838
  H       10.689    -248.758    -290.024
  H       12.339    -247.517    -288.800
  H       11.260    -248.165    -286.267
  H        9.366    -246.675    -286.769
  H       10.879    -245.966    -287.393
  P       13.827    -248.326    -286.516
  C       15.875    -247.487    -287.906
  O       15.378    -248.382    -286.927
  O       13.700    -249.353    -285.299
  O       13.278    -246.961    -286.257
  H       13.751    -250.285    -285.569
  H       16.920    -247.664    -288.054
  H       15.727    -246.480    -287.576
  H       15.354    -247.641    -288.828

 6  7  8  9  10  11  12  13  14  15  16  27  31  32  33  34  35 0
 6-311+G(2d,p)
 ****
 36  37 0
 6-311+G(2d,p)
 ****
 1  2  3  4  5  17  18  19  20  21  22  23  24  25 0
 3-21G
 ****
 26  28  29  30  38  39  40  41  42  43  44  45 0
 3-21G
 ****


