%nproc=1
%NoSave
%Mem=1900MB
#P OB98/GEN NMR

erre ene a

0 1
  C     -157.400     320.491      58.955
  O     -158.706     320.232      59.430
  H     -157.009     319.579      58.497
  H     -156.742     320.778      59.780
  H     -157.419     321.281      58.199
  P     -159.489     321.409      60.186
  C     -159.381     322.447      62.550
  O     -158.741     321.611      61.591
  C     -158.345     323.072      63.482
  O     -157.293     323.694      62.715
  C     -158.903     324.153      64.404
  O     -159.534     323.570      65.534
  C     -157.630     324.894      64.768
  O     -156.890     324.138      65.748
  C     -156.870     324.893      63.428
  N     -156.436     329.931      62.956
  C     -156.175     329.116      64.043
  N     -155.768     329.734      65.171
  N     -156.313     327.814      64.026
  C     -156.790     327.343      62.853
  C     -157.103     328.050      61.714
  C     -156.886     329.481      61.721
  O     -157.079     330.235      60.775
  N     -157.649     327.237      60.753
  C     -157.621     326.033      61.289
  N     -157.116     326.044      62.570
  O     -160.972     321.238      60.308
  O     -159.100     322.729      59.371
  H     -156.764     323.242      65.387
  H     -159.751     322.914      58.670
  H     -156.318     330.929      63.030
  H     -157.946     325.123      60.800
  H     -155.786     324.828      63.566
  H     -157.817     325.879      65.197
  H     -155.789     330.738      65.291
  H     -159.572     324.837      63.871
  H     -155.629     329.160      65.997
  H     -157.882     322.262      64.062
  H     -160.078     321.822      63.117
  H     -159.949     323.238      62.048
  P     -161.110     323.745      65.799
  C     -162.622     325.740      66.452
  O     -161.312     325.298      66.153
  O     -161.684     322.802      66.799
  O     -161.769     323.646      64.349
  H     -161.945     322.715      64.070
  H     -162.605     326.788      66.667
  H     -162.992     325.208      67.303
  H     -163.260     325.558      65.612

 6  7  8  9  10  11  12  13  14  15  26  29  33  34 0
 6-311+G(2d,p)
 ****
 36  38  39  40  41 0
 6-311+G(2d,p)
 ****
 1  2  3  4  5  16  17  18  19  20  21  22  23  24  25 0
 3-21G
 ****
 27  28  30  31  32  35  37  42  43  44  45  46  47 0
 3-21G
 ****
 48  49 0
 3-21G
 ****


