%nproc=1
%NoSave
%Mem=1900MB
#P OB98/GEN NMR

erre ene a

0 1
  C     -131.168      67.929      28.080
  O     -131.043      69.344      27.946
  P     -131.719      70.053      26.678
  C     -131.167      70.472      24.191
  O     -130.750      69.868      25.412
  C     -129.986      70.586      23.213
  O     -129.166      71.722      23.596
  C     -129.042      69.378      23.197
  O     -129.331      68.307      22.305
  C     -127.747      70.020      22.701
  O     -127.766      70.109      21.264
  C     -127.785      71.422      23.300
  N     -123.093      70.879      25.266
  C     -123.579      70.682      24.022
  N     -124.842      70.849      23.581
  C     -125.641      71.280      24.571
  C     -125.286      71.528      25.886
  C     -123.940      71.308      26.230
  N     -123.448      71.498      27.501
  N     -126.378      71.950      26.614
  C     -127.379      71.937      25.756
  N     -126.982      71.553      24.505
  O     -132.228      71.437      26.899
  O     -132.926      69.055      26.328
  H     -126.934      70.543      21.001
  H     -133.696      69.579      26.036
  H     -122.858      70.342      23.283
  H     -128.401      72.197      25.995
  H     -127.431      72.187      22.598
  H     -126.862      69.434      22.966
  H     -128.896      68.985      24.210
  H     -130.373      70.771      22.203
  H     -131.571      71.467      24.396
  H     -122.480      71.275      27.672
  H     -124.078      71.761      28.244
  H     -131.987      69.874      23.791
  P     -130.120      67.003      22.796
  C     -129.872      65.434      24.877
  O     -129.374      66.525      24.132
  O     -130.290      65.940      21.767
  O     -131.491      67.614      23.350
  H     -131.396      68.147      24.158
  H     -129.118      65.136      25.609
  H     -130.088      64.584      24.225
  H     -130.781      65.736      25.408
  H     -130.667      67.609      28.970
  H     -130.727      67.450      27.231
  H     -132.204      67.666      28.139

 3  4  5  6  7  8  9  10  11  12  22  25  29  30  31  32 0
 6-311+G(2d,p)
 ****
 33  36  37 0
 6-311+G(2d,p)
 ****
 1  2  13  14  15  16  17  18  19  20  21  23  24  26 0
 3-21G
 ****
 27  28  34  35  38  39  40  41  42  43  44  45  46  47  48 0
 3-21G
 ****


