%nproc=1
%NoSave
%Mem=1900MB
#P OB98/GEN NMR

erre ene a

0 1
  C     -249.695    -906.816    -286.963
  O     -248.675    -906.295    -287.785
  H     -249.366    -907.774    -286.554
  H     -250.596    -906.984    -287.559
  H     -249.920    -906.138    -286.135
  P     -248.766    -904.737    -288.174
  C     -249.278    -905.448    -290.616
  O     -248.491    -904.640    -289.754
  C     -249.174    -904.945    -292.055
  O     -249.883    -903.666    -292.154
  C     -247.731    -904.715    -292.542
  O     -247.652    -905.072    -293.930
  C     -247.580    -903.207    -292.436
  O     -246.564    -902.704    -293.296
  C     -248.989    -902.751    -292.804
  N     -249.151    -898.042    -294.531
  C     -249.083    -899.242    -295.206
  N     -248.985    -899.190    -296.549
  N     -249.109    -900.408    -294.608
  C     -249.227    -900.314    -293.261
  C     -249.304    -899.197    -292.477
  C     -249.261    -897.915    -293.145
  O     -249.292    -896.819    -292.602
  N     -249.358    -899.529    -291.148
  C     -249.297    -900.853    -291.131
  N     -249.218    -901.370    -292.397
  O     -247.432    -904.138    -287.520
  O     -249.987    -904.034    -287.691
  H     -245.789    -903.305    -293.252
  H     -247.631    -903.776    -286.635
  H     -249.115    -897.173    -295.034
  H     -249.285    -901.466    -290.239
  H     -249.171    -902.794    -293.892
  H     -247.328    -902.924    -291.408
  H     -248.993    -898.330    -297.082
  H     -246.974    -905.264    -291.974
  H     -248.971    -900.059    -297.063
  H     -249.704    -905.651    -292.711
  H     -250.318    -905.405    -290.294
  H     -248.933    -906.484    -290.551
  P     -247.070    -906.524    -294.296
  C     -244.580    -905.861    -294.712
  O     -245.807    -906.325    -295.269
  O     -248.188    -907.121    -295.274
  O     -246.844    -907.400    -293.108
  H     -248.255    -908.091    -295.136
  H     -243.845    -905.782    -295.485
  H     -244.243    -906.552    -293.968
  H     -244.732    -904.901    -294.265

 6  7  8  9  10  11  12  13  14  15  26  29  33  34 0
 6-311+G(2d,p)
 ****
 36  38  39  40  41 0
 6-311+G(2d,p)
 ****
 1  2  3  4  5  16  17  18  19  20  21  22  23  24  25 0
 3-21G
 ****
 27  28  30  31  32  35  37  42  43  44  45  46  47 0
 3-21G
 ****
 48  49 0
 3-21G
 ****


