%nproc=1
%NoSave
%Mem=1900MB
#P OB98/GEN NMR

erre ene a

0 1
  C        7.027     -63.308    -125.849
  O        5.622     -63.332    -125.699
  H        7.483     -63.710    -124.941
  H        7.378     -62.282    -125.996
  H        7.323     -63.928    -126.699
  P        4.760     -62.727    -126.908
  C        4.965     -64.729    -128.520
  O        4.119     -64.014    -127.626
  C        4.188     -65.855    -129.202
  O        4.082     -66.970    -128.277
  C        2.764     -65.459    -129.611
  O        2.432     -66.109    -130.838
  C        1.911     -66.034    -128.494
  O        0.562     -66.247    -128.897
  C        2.689     -67.303    -128.151
  N       -0.091     -70.627    -125.479
  C        0.141     -70.500    -126.803
  N        0.920     -69.595    -127.430
  C        1.535     -68.798    -126.536
  C        1.398     -68.807    -125.160
  C        0.528     -69.775    -124.628
  N        0.256     -69.890    -123.285
  N        2.158     -67.803    -124.594
  C        2.753     -67.204    -125.611
  N        2.387     -67.761    -126.806
  O        5.487     -61.791    -127.814
  O        3.503     -62.101    -126.139
  H        0.151     -65.375    -129.079
  H        3.145     -62.721    -125.476
  H       -0.372     -71.215    -127.444
  H        3.434     -66.363    -125.536
  H        2.465     -68.132    -128.836
  H        1.901     -65.344    -127.641
  H        2.632     -64.382    -129.715
  H        4.765     -66.210    -130.065
  H        5.817     -65.150    -127.976
  H       -0.380     -70.614    -122.988
  H        0.710     -69.268    -122.631
  H        5.343     -64.021    -129.265
  P        2.206     -65.223    -132.155
  C        4.485     -65.170    -133.356
  O        3.190     -65.753    -133.309
  O        2.214     -63.745    -131.949
  O        0.771     -65.721    -132.675
  H        0.254     -64.948    -132.972
  H        5.042     -65.602    -134.161
  H        4.993     -65.354    -132.432
  H        4.396     -64.115    -133.510

 6  7  8  9  10  11  12  13  14  15  25  28  32  33  34  35 0
 6-311+G(2d,p)
 ****
 36  39  40 0
 6-311+G(2d,p)
 ****
 1  2  3  4  5  16  17  18  19  20  21  22  23  24 0
 3-21G
 ****
 26  27  29  30  31  37  38  41  42  43  44  45  46  47 0
 3-21G
 ****
 48 0
 3-21G
 ****


