%nproc=1
%NoSave
%Mem=1900MB
#P OB98/GEN NMR

erre ene a

0 1
  C      237.251    -211.960     383.119
  O      235.852    -211.736     383.117
  P      234.984    -211.975     384.439
  C      233.792    -214.245     384.094
  O      234.936    -213.571     384.632
  C      233.314    -215.342     385.045
  O      234.360    -216.314     385.271
  C      232.915    -214.838     386.424
  O      231.637    -214.227     386.388
  C      232.973    -216.132     387.237
  O      231.769    -216.899     387.082
  C      234.169    -216.857     386.595
  N      235.388    -216.755     387.401
  C      235.801    -217.935     388.036
  O      235.131    -218.969     387.919
  N      236.937    -217.893     388.820
  C      237.571    -216.784     388.968
  N      238.681    -216.808     389.768
  C      237.154    -215.514     388.346
  C      236.059    -215.570     387.583
  O      233.662    -211.289     384.478
  O      235.979    -211.513     385.615
  H      231.038    -216.323     387.386
  H      236.058    -210.525     385.649
  H      237.718    -214.603     388.509
  H      235.684    -214.682     387.078
  H      233.943    -217.925     386.457
  H      233.096    -215.940     388.313
  H      233.670    -214.134     386.802
  H      232.466    -215.858     384.570
  H      238.915    -217.696     390.200
  H      234.071    -214.692     383.139
  H      239.234    -215.982     389.982
  H      232.999    -213.515     383.913
  P      231.423    -212.771     387.023
  C      229.790    -213.579     388.832
  O      231.039    -212.969     388.570
  O      230.525    -211.857     386.247
  O      232.914    -212.173     387.095
  H      232.902    -211.251     386.785
  H      229.793    -213.952     389.865
  H      229.607    -214.410     388.154
  H      228.994    -212.841     388.724
  H      237.648    -211.746     382.149
  H      237.448    -212.982     383.368
  H      237.713    -211.321     383.842

 3  4  5  6  7  8  9  10  11  12  13  23  27  28  29  30  32 0
 6-311+G(2d,p)
 ****
 34  35 0
 6-311+G(2d,p)
 ****
 1  2  14  15  16  17  18  19  20  21  22  24  25  26 0
 3-21G
 ****
 31  33  36  37  38  39  40  41  42  43  44  45  46 0
 3-21G
 ****


