%nproc=1
%NoSave
%Mem=1900MB
#P OB98/GEN NMR

erre ene a

0 1
  C      194.329    -222.051    -805.668
  O      193.284    -221.532    -804.838
  P      192.920    -219.975    -805.013
  C      192.463    -219.375    -802.514
  O      191.917    -219.577    -803.820
  C      191.638    -220.122    -801.469
  O      191.887    -221.539    -801.526
  C      191.953    -219.728    -800.033
  O      191.305    -218.512    -799.663
  C      191.361    -220.900    -799.263
  O      189.941    -220.710    -799.086
  C      191.634    -222.086    -800.209
  N      193.792    -224.734    -796.464
  C      192.594    -224.036    -796.486
  N      191.850    -224.088    -795.350
  N      192.158    -223.375    -797.515
  C      192.992    -223.440    -798.589
  C      194.209    -224.082    -798.686
  C      194.694    -224.797    -797.519
  O      195.760    -225.395    -797.431
  N      194.760    -223.929    -799.932
  C      193.869    -223.221    -800.599
  N      192.786    -222.881    -799.818
  O      191.966    -219.966    -806.304
  O      194.112    -219.097    -805.185
  H      189.828    -219.917    -798.516
  H      192.022    -219.104    -806.755
  H      194.079    -225.227    -795.633
  H      193.956    -222.926    -801.638
  H      190.763    -222.746    -800.286
  H      191.795    -221.014    -798.266
  H      192.084    -224.650    -794.543
  H      193.037    -219.681    -799.860
  H      190.945    -223.624    -795.359
  H      190.574    -219.944    -801.678
  H      192.464    -218.305    -802.285
  H      193.504    -219.701    -802.514
  P      192.201    -217.404    -798.919
  C      190.692    -216.965    -796.842
  O      191.161    -216.499    -798.095
  O      192.680    -216.457    -800.118
  O      193.341    -217.957    -798.135
  H      193.540    -216.045    -799.891
  H      191.504    -217.396    -796.249
  H      189.911    -217.723    -797.004
  H      190.260    -216.126    -796.292
  H      194.471    -223.090    -805.455
  H      195.237    -221.519    -805.473
  H      194.060    -221.932    -806.697

 3  4  5  6  7  8  9  10  11  12  23  26  30  31  33  0
 6-311+G(2d,p)
 ****
 35  36  37  38 0
 6-311+G(2d,p)
 ****
 1  2  13  14  15  16  17  18  19  20  21  22  24  25  27  28  29 0
 3-21G
 ****
 32  34  39  40  41  42  43  44  45  46  47  48  49 0
 3-21G
 ****


