%nproc=1
%NoSave
%Mem=1900MB
#P OB98/GEN NMR

erre ene a

0 1
  C       49.990     -59.074     141.003
  O       48.935     -59.754     140.358
  H       50.872     -59.720     141.011
  H       49.714     -58.855     142.037
  H       50.242     -58.147     140.481
  P       47.614     -58.940     139.959
  C       47.417     -60.228     137.732
  O       46.793     -59.891     138.962
  C       48.275     -61.483     137.904
  O       47.414     -62.562     138.383
  C       48.935     -61.960     136.594
  O       50.209     -62.534     136.908
  C       47.973     -63.042     136.148
  O       48.564     -63.926     135.230
  C       47.597     -63.671     137.486
  N       46.400     -64.499     137.371
  C       46.595     -65.866     137.221
  O       47.703     -66.396     137.171
  N       45.464     -66.618     137.053
  C       44.198     -66.132     136.911
  O       43.231     -66.845     136.682
  C       44.058     -64.671     137.025
  C       45.147     -63.934     137.253
  O       47.828     -57.550     139.458
  O       46.711     -58.979     141.280
  H       48.750     -63.463     134.393
  H       46.056     -58.257     141.264
  H       45.588     -67.613     136.953
  H       43.069     -64.252     136.902
  H       45.084     -62.854     137.324
  H       48.420     -64.282     137.877
  H       47.099     -62.593     135.664
  H       49.055     -61.161     135.858
  H       49.025     -61.303     138.682
  H       48.047     -59.386     137.425
  H       46.651     -60.397     136.968
  P       51.585     -61.797     136.532
  C       53.516     -62.071     138.202
  O       52.841     -62.637     137.083
  O       51.621     -60.346     136.893
  O       51.699     -61.965     134.943
  H       51.955     -61.110     134.549
  H       54.330     -62.705     138.486
  H       52.833     -61.978     139.021
  H       53.892     -61.104     137.940

 6  7  8  9  10  11  12  13  14  15  16  26  31  32  33  34  35 0
 6-311+G(2d,p)
 ****
 36  37 0
 6-311+G(2d,p)
 ****
 1  2  3  4  5  17  18  19  20  21  22  23  24  25 0
 3-21G
 ****
 27  28  29  30  38  39  40  41  42  43  44  45 0
 3-21G
 ****


