%nproc=1
%NoSave
%Mem=1900MB
#P OB98/GEN NMR

erre ene a

0 1
  C      456.219    -940.776     257.800
  O      456.510    -939.767     256.855
  P      455.252    -939.056     256.140
  C      453.455    -939.851     254.418
  O      454.690    -940.111     255.058
  C      453.427    -940.555     253.062
  O      453.706    -941.967     253.216
  C      452.093    -940.469     252.336
  O      451.974    -939.224     251.663
  C      452.170    -941.666     251.400
  O      452.948    -941.351     250.221
  C      452.887    -942.706     252.271
  N      449.814    -946.703     251.811
  C      450.447    -945.952     250.838
  N      450.264    -946.353     249.559
  N      451.186    -944.905     251.092
  C      451.265    -944.616     252.418
  C      450.677    -945.276     253.471
  C      449.900    -946.459     253.185
  O      449.405    -947.216     254.013
  N      450.975    -944.668     254.669
  C      451.763    -943.666     254.343
  N      451.992    -943.603     252.986
  O      455.939    -937.915     255.245
  O      454.213    -938.519     257.076
  H      452.933    -942.113     249.622
  H      455.890    -937.054     255.707
  H      449.263    -947.507     251.555
  H      452.205    -942.984     255.031
  H      453.572    -943.343     251.680
  H      451.179    -941.978     251.040
  H      449.688    -947.124     249.287
  H      451.256    -940.606     253.040
  H      450.711    -945.806     248.826
  H      454.231    -940.135     252.443
  H      453.341    -938.774     254.266
  H      452.638    -940.210     255.058
  P      450.540    -938.864     251.026
  C      449.146    -939.673     248.992
  O      450.359    -939.771     249.721
  O      450.769    -937.377     250.432
  O      449.403    -938.878     251.994
  H      449.958    -936.858     250.548
  H      449.353    -939.893     247.940
  H      448.709    -938.674     249.072
  H      448.436    -940.412     249.393
  H      457.132    -941.165     258.199
  H      455.673    -941.564     257.324
  H      455.631    -940.363     258.593

 3  4  5  6  7  8  9  10  11  12  23  26  30  31 0
 6-311+G(2d,p)
 ****
 33  35  36  37  38 0
 6-311+G(2d,p)
 ****
 1  2  13  14  15  16  17  18  19  20  21  22  24  25 0
 3-21G
 ****
 27  28  29  32  34  39  40  41  42  43  44  45  46  47  48  49 0
 3-21G
 ****


