%nproc=1
%NoSave
%Mem=1900MB
#P OB98/GEN NMR

erre ene a

0 1
  C      -13.975    -779.818     569.173
  O      -14.493    -779.806     567.859
  H      -13.826    -780.853     569.482
  H      -14.684    -779.342     569.859
  H      -13.017    -779.294     569.208
  P      -14.769    -778.370     567.189
  C      -17.203    -779.064     566.570
  O      -15.928    -778.638     566.104
  C      -17.869    -779.975     565.538
  O      -18.238    -779.185     564.377
  C      -16.973    -781.118     565.060
  O      -17.738    -782.323     564.984
  C      -16.521    -780.683     563.677
  O      -16.189    -781.793     562.839
  C      -17.708    -779.833     563.204
  N      -17.309    -778.855     562.195
  C      -17.964    -778.924     560.957
  O      -18.827    -779.780     560.760
  N      -17.601    -778.050     559.963
  C      -16.616    -777.226     560.162
  N      -16.283    -776.403     559.127
  C      -15.863    -777.154     561.430
  C      -16.260    -777.986     562.388
  O      -13.466    -778.138     566.299
  O      -15.055    -777.267     568.151
  H      -16.972    -782.381     562.795
  H      -13.397    -777.200     565.992
  H      -15.038    -776.463     561.539
  H      -15.761    -778.003     563.354
  H      -18.497    -780.470     562.783
  H      -15.624    -780.055     563.770
  H      -16.119    -781.287     565.714
  H      -18.811    -780.353     565.962
  H      -16.821    -776.489     558.268
  H      -17.829    -778.183     566.749
  H      -15.521    -775.745     559.160
  H      -17.072    -779.612     567.512
  P      -17.519    -783.373     566.187
  C      -17.729    -785.232     564.396
  O      -18.081    -784.791     565.696
  O      -18.571    -782.896     567.296
  O      -16.118    -783.394     566.701
  H      -18.124    -782.368     567.983
  H      -18.174    -786.187     564.211
  H      -16.665    -785.315     564.323
  H      -18.082    -784.527     563.672

 6  7  8  9  10  11  12  13  14  15  16  26  30  31  32  33  35 0
 6-311+G(2d,p)
 ****
 37  38 0
 6-311+G(2d,p)
 ****
 1  2  3  4  5  17  18  19  20  21  22  23  24  25 0
 3-21G
 ****
 27  28  29  34  36  39  40  41  42  43  44  45  46 0
 3-21G
 ****


