%nproc=1
%NoSave
%Mem=1900MB
#P OB98/GEN NMR

erre ene a

0 1
  C     1016.809    -890.475    1031.909
  O     1015.717    -889.864    1031.197
  P     1014.351    -889.684    1032.036
  C     1013.618    -887.251    1031.496
  O     1014.220    -888.146    1032.429
  C     1014.716    -886.489    1030.712
  O     1015.497    -887.334    1029.869
  C     1014.127    -885.389    1029.791
  O     1013.792    -884.247    1030.543
  C     1015.314    -885.200    1028.830
  O     1016.268    -884.274    1029.372
  C     1015.905    -886.575    1028.714
  N     1017.640    -888.629    1024.409
  C     1018.298    -887.837    1025.336
  N     1019.601    -887.590    1025.075
  N     1017.713    -887.350    1026.396
  C     1016.432    -887.702    1026.514
  C     1015.670    -888.505    1025.665
  C     1016.337    -889.047    1024.489
  O     1015.805    -889.756    1023.651
  N     1014.404    -888.692    1026.163
  C     1014.330    -887.886    1027.204
  N     1015.550    -887.323    1027.510
  O     1014.672    -890.429    1033.422
  O     1013.158    -890.264    1031.336
  H     1016.552    -884.577    1030.245
  H     1014.125    -891.253    1033.467
  H     1018.137    -888.977    1023.590
  H     1013.439    -887.715    1027.775
  H     1016.997    -886.537    1028.720
  H     1014.957    -884.758    1027.882
  H     1020.108    -887.895    1024.295
  H     1013.263    -885.795    1029.243
  H     1020.106    -886.984    1025.778
  H     1015.372    -886.036    1031.446
  H     1012.972    -886.536    1031.999
  H     1013.000    -887.845    1030.797
  P     1012.262    -883.975    1030.859
  C     1012.341    -884.487    1033.404
  O     1011.851    -884.858    1032.154
  O     1011.509    -884.678    1029.631
  O     1011.887    -882.525    1030.938
  H     1010.823    -884.088    1029.286
  H     1011.648    -884.796    1034.149
  H     1012.499    -883.395    1033.486
  H     1013.296    -885.011    1033.559
  H     1017.660    -890.546    1031.264
  H     1016.522    -891.455    1032.230
  H     1017.057    -889.879    1032.762

 3  4  5  6  7  8  9  10  11  12  23  26  30  31 0
 6-311+G(2d,p)
 ****
 33  35  36  37  38 0
 6-311+G(2d,p)
 ****
 1  2  13  14  15  16  17  18  19  20  21  22  24  25 0
 3-21G
 ****
 27  28  29  32  34  39  40  41  42  43  44  45  46  47  48  49 0
 3-21G
 ****


