%nproc=1
%NoSave
%Mem=1900MB
#P OB98/GEN NMR

erre ene a

0 1
  C       71.587     -89.425    -288.713
  O       72.006     -88.680    -287.586
  H       70.667     -88.982    -289.104
  H       71.378     -90.458    -288.413
  H       72.348     -89.410    -289.499
  P       73.499     -88.948    -287.056
  C       72.969     -90.811    -285.323
  O       73.543     -90.483    -286.582
  C       73.967     -91.577    -284.469
  O       74.351     -92.812    -285.116
  C       75.267     -90.819    -284.185
  O       75.123     -89.924    -283.090
  C       76.194     -91.969    -283.833
  O       75.919     -92.420    -282.487
  C       75.760     -93.048    -284.837
  N       79.802     -94.858    -287.317
  C       79.410     -95.047    -286.006
  N       80.210     -95.824    -285.242
  N       78.329     -94.524    -285.483
  C       77.640     -93.749    -286.356
  C       77.931     -93.482    -287.674
  C       79.119     -94.077    -288.242
  O       79.503     -93.951    -289.401
  N       76.998     -92.649    -288.244
  C       76.152     -92.403    -287.261
  N       76.499     -93.044    -286.092
  O       73.537     -88.120    -285.681
  O       74.592     -88.518    -287.980
  H       76.544     -93.142    -282.293
  H       74.024     -87.289    -285.827
  H       80.649     -95.278    -287.661
  H       75.274     -91.779    -287.340
  H       75.846     -94.064    -284.424
  H       77.247     -91.690    -283.864
  H       81.067     -96.242    -285.570
  H       75.639     -90.309    -285.085
  H       79.941     -95.979    -284.277
  H       73.470     -91.851    -283.524
  H       72.075     -91.434    -285.488
  H       72.669     -89.887    -284.814
  P       75.771     -88.461    -283.214
  C       77.773     -88.931    -281.635
  O       77.348     -88.621    -282.956
  O       75.244     -87.729    -281.894
  O       75.394     -87.699    -284.444
  H       74.603     -87.029    -282.135
  H       78.840     -89.007    -281.612
  H       77.343     -89.862    -281.331
  H       77.456     -88.157    -280.968

 6  7  8  9  10  11  12  13  14  15  26  29  33  34 0
 6-311+G(2d,p)
 ****
 36  38  39  40  41 0
 6-311+G(2d,p)
 ****
 1  2  3  4  5  16  17  18  19  20  21  22  23  24  25 0
 3-21G
 ****
 27  28  30  31  32  35  37  42  43  44  45  46  47 0
 3-21G
 ****
 48  49 0
 3-21G
 ****


