%nproc=1
%NoSave
%Mem=1900MB
#P OB98/GEN NMR

erre ene a

0 1
  C       62.335    -383.092    -228.532
  O       61.402    -382.189    -229.108
  P       61.281    -382.155    -230.710
  C       58.689    -382.212    -230.854
  O       59.909    -382.912    -231.057
  C       57.535    -383.192    -230.669
  O       57.729    -383.979    -229.472
  C       56.163    -382.543    -230.510
  O       55.591    -382.184    -231.766
  C       55.377    -383.668    -229.876
  O       54.977    -384.621    -230.884
  C       56.416    -384.302    -228.936
  N       56.057    -385.651    -224.015
  C       56.055    -386.379    -225.147
  N       56.150    -385.951    -226.423
  C       56.202    -384.603    -226.468
  C       56.166    -383.721    -225.389
  C       56.101    -384.296    -224.109
  N       56.120    -383.550    -222.952
  N       56.238    -382.417    -225.831
  C       56.314    -382.503    -227.143
  N       56.313    -383.809    -227.574
  O       62.407    -383.205    -231.180
  O       61.469    -380.816    -231.332
  H       54.440    -384.134    -231.541
  H       62.682    -383.009    -232.091
  H       55.996    -387.453    -225.017
  H       56.400    -381.660    -227.815
  H       56.337    -385.397    -228.896
  H       54.458    -383.328    -229.385
  H       56.208    -381.684    -229.821
  H       57.534    -383.882    -231.526
  H       58.487    -381.582    -231.722
  H       56.259    -384.041    -222.077
  H       56.365    -382.564    -223.029
  H       58.789    -381.571    -229.961
  P       54.659    -380.884    -231.792
  C       56.265    -379.536    -233.320
  O       55.647    -379.643    -232.052
  O       54.230    -380.712    -230.255
  O       53.483    -380.992    -232.699
  H       53.374    -380.237    -230.188
  H       56.650    -378.507    -233.435
  H       55.558    -379.732    -234.124
  H       57.113    -380.222    -233.389
  H       62.305    -383.004    -227.466
  H       63.319    -382.859    -228.882
  H       62.084    -384.093    -228.814

 3  4  5  6  7  8  9  10  11  12  22  25  29  30  31  32 0
 6-311+G(2d,p)
 ****
 33  36  37 0
 6-311+G(2d,p)
 ****
 1  2  13  14  15  16  17  18  19  20  21  23  24  26 0
 3-21G
 ****
 27  28  34  35  38  39  40  41  42  43  44  45  46  47  48 0
 3-21G
 ****


