%nproc=1
%NoSave
%Mem=1900MB
#P OB98/GEN NMR

erre ene a

0 1
  C      266.548    -398.381    1026.258
  O      265.249    -397.891    1025.981
  H      267.145    -398.327    1025.344
  H      266.497    -399.426    1026.582
  H      267.033    -397.772    1027.029
  P      264.195    -397.763    1027.180
  C      264.605    -395.235    1026.938
  O      264.423    -396.317    1027.842
  C      264.343    -393.902    1027.640
  O      262.909    -393.665    1027.680
  C      264.878    -393.849    1029.074
  O      265.380    -392.534    1029.314
  C      263.636    -394.081    1029.917
  O      263.746    -393.497    1031.221
  C      262.549    -393.440    1029.060
  N      258.672    -393.355    1032.302
  C      259.822    -392.588    1032.274
  N      259.977    -391.675    1033.257
  N      260.742    -392.699    1031.340
  C      260.453    -393.640    1030.406
  C      259.349    -394.464    1030.331
  C      258.351    -394.338    1031.371
  O      257.320    -394.999    1031.460
  N      259.423    -395.306    1029.247
  C      260.571    -394.999    1028.675
  N      261.233    -394.001    1029.345
  O      264.194    -398.897    1028.157
  O      262.784    -397.614    1026.442
  H      263.007    -393.849    1031.755
  H      262.306    -398.464    1026.438
  H      258.010    -393.227    1033.041
  H      260.971    -395.461    1027.776
  H      262.471    -392.346    1029.217
  H      263.462    -395.156    1030.030
  H      259.303    -391.528    1033.986
  H      265.648    -394.597    1029.277
  H      260.806    -391.093    1033.235
  H      264.779    -393.098    1027.021
  H      263.896    -395.357    1026.106
  H      265.616    -395.260    1026.534
  P      266.900    -392.387    1029.838
  C      267.891    -391.707    1027.561
  O      267.882    -392.680    1028.600
  O      267.223    -393.103    1031.106
  O      267.045    -390.787    1030.012
  H      267.695    -390.624    1030.733
  H      268.577    -392.007    1026.797
  H      268.194    -390.762    1027.960
  H      266.909    -391.621    1027.145

 6  7  8  9  10  11  12  13  14  15  26  29  33  34 0
 6-311+G(2d,p)
 ****
 36  38  39  40  41 0
 6-311+G(2d,p)
 ****
 1  2  3  4  5  16  17  18  19  20  21  22  23  24  25 0
 3-21G
 ****
 27  28  30  31  32  35  37  42  43  44  45  46  47 0
 3-21G
 ****
 48  49 0
 3-21G
 ****


