%nproc=1
%NoSave
%Mem=1900MB
#P OB98/GEN NMR

erre ene a

0 1
  C     1436.029    -598.611     -51.500
  O     1435.113    -598.417     -52.573
  H     1435.626    -599.380     -50.838
  H     1436.140    -597.689     -50.933
  H     1437.000    -598.928     -51.884
  P     1435.474    -597.321     -53.689
  C     1434.342    -596.578     -55.895
  O     1434.495    -597.622     -54.930
  C     1434.196    -597.180     -57.289
  O     1435.424    -597.820     -57.696
  C     1433.090    -598.245     -57.403
  O     1431.824    -597.615     -57.535
  C     1433.538    -598.971     -58.647
  O     1433.212    -598.194     -59.826
  C     1435.072    -599.003     -58.450
  N     1435.678    -604.058     -58.602
  C     1435.071    -603.203     -59.502
  N     1434.493    -603.786     -60.572
  N     1435.001    -601.902     -59.351
  C     1435.544    -601.455     -58.194
  C     1436.163    -602.215     -57.212
  C     1436.281    -603.631     -57.410
  O     1436.827    -604.423     -56.645
  N     1436.541    -601.423     -56.146
  C     1436.180    -600.203     -56.517
  N     1435.565    -600.193     -57.737
  O     1436.924    -597.209     -54.060
  O     1434.891    -595.950     -53.089
  H     1433.535    -597.291     -59.647
  H     1435.578    -595.481     -52.577
  H     1435.672    -605.051     -58.752
  H     1436.349    -599.304     -55.910
  H     1435.607    -598.962     -59.400
  H     1433.079    -599.955     -58.770
  H     1434.271    -604.771     -60.596
  H     1433.114    -598.940     -56.556
  H     1434.005    -603.195     -61.237
  H     1434.016    -596.356     -57.991
  H     1435.229    -595.933     -55.840
  H     1433.459    -595.988     -55.657
  P     1430.518    -598.471     -57.917
  C     1428.000    -597.856     -58.102
  O     1429.268    -597.511     -57.543
  O     1430.466    -599.838     -57.276
  O     1430.476    -598.495     -59.504
  H     1430.975    -599.248     -59.898
  H     1427.264    -597.149     -57.781
  H     1427.720    -598.835     -57.774
  H     1428.065    -597.842     -59.170

 6  7  8  9  10  11  12  13  14  15  26  29  33  34 0
 6-311+G(2d,p)
 ****
 36  38  39  40  41 0
 6-311+G(2d,p)
 ****
 1  2  3  4  5  16  17  18  19  20  21  22  23  24  25 0
 3-21G
 ****
 27  28  30  31  32  35  37  42  43  44  45  46  47 0
 3-21G
 ****
 48  49 0
 3-21G
 ****


