%nproc=1
%NoSave
%Mem=1900MB
#P OB98/GEN NMR

erre ene a

0 1
  C       90.860    1089.351    -259.536
  O       91.879    1089.236    -258.548
  P       92.178    1090.540    -257.658
  C       90.536    1090.070    -255.701
  O       90.858    1090.883    -256.816
  C       89.823    1090.911    -254.637
  O       88.570    1091.433    -255.128
  C       89.469    1090.115    -253.389
  O       90.612    1089.878    -252.585
  C       88.428    1091.030    -252.749
  O       89.060    1092.113    -252.064
  C       87.678    1091.573    -253.981
  N       82.588    1092.034    -254.247
  C       83.558    1092.918    -253.938
  N       84.894    1092.709    -253.878
  C       85.190    1091.449    -254.212
  C       84.304    1090.433    -254.558
  C       82.945    1090.759    -254.549
  N       81.951    1089.853    -254.859
  N       84.991    1089.264    -254.814
  C       86.263    1089.553    -254.608
  N       86.441    1090.866    -254.259
  O       92.276    1091.712    -258.736
  O       93.431    1090.424    -256.844
  H       89.627    1092.589    -252.694
  H       93.200    1092.007    -258.822
  H       83.223    1093.930    -253.691
  H       87.074    1088.864    -254.716
  H       87.431    1092.636    -253.890
  H       87.792    1090.512    -252.023
  H       89.005    1089.153    -253.655
  H       90.473    1091.759    -254.369
  H       91.441    1089.624    -255.285
  H       80.982    1090.149    -254.759
  H       82.205    1088.885    -254.999
  H       89.900    1089.242    -256.033
  P       90.648    1088.537    -251.722
  C       91.970    1087.135    -253.425
  O       90.711    1087.363    -252.831
  O       89.147    1088.438    -251.186
  O       91.708    1088.481    -250.664
  H       88.497    1088.618    -251.906
  H       91.881    1086.298    -254.130
  H       92.719    1086.886    -252.669
  H       92.299    1088.032    -253.965
  H       90.760    1088.421    -260.055
  H       91.122    1090.121    -260.231
  H       89.932    1089.598    -259.064

 3  4  5  6  7  8  9  10  11  12  22  25  29  30  31  32 0
 6-311+G(2d,p)
 ****
 33  36  37 0
 6-311+G(2d,p)
 ****
 1  2  13  14  15  16  17  18  19  20  21  23  24  26 0
 3-21G
 ****
 27  28  34  35  38  39  40  41  42  43  44  45  46  47  48 0
 3-21G
 ****


