%nproc=1
%NoSave
%Mem=1900MB
#P OB98/GEN NMR

erre ene a

0 1
  C     -221.332    -127.343     352.657
  O     -221.989    -126.522     351.710
  H     -222.082    -127.885     353.232
  H     -220.751    -126.716     353.341
  H     -220.676    -128.062     352.161
  P     -221.084    -125.871     350.553
  C     -220.879    -123.345     351.116
  O     -220.293    -124.637     351.217
  C     -219.796    -122.265     351.189
  O     -219.043    -122.273     349.943
  C     -220.350    -120.847     351.383
  O     -219.479    -120.127     352.264
  C     -220.284    -120.243     349.990
  O     -220.201    -118.814     350.012
  C     -219.050    -120.931     349.423
  N     -216.154    -121.336     345.314
  C     -215.829    -121.470     346.655
  N     -214.539    -121.748     346.941
  N     -216.697    -121.345     347.620
  C     -217.953    -121.102     347.185
  C     -218.407    -120.943     345.899
  C     -217.428    -121.056     344.831
  O     -217.643    -120.924     343.629
  N     -219.750    -120.675     345.864
  C     -220.117    -120.669     347.134
  N     -219.062    -120.937     347.973
  O     -222.165    -125.160     349.609
  O     -220.236    -126.830     349.789
  H     -219.346    -118.578     350.435
  H     -222.162    -125.588     348.730
  H     -215.438    -121.431     344.608
  H     -221.119    -120.481     347.491
  H     -218.116    -120.437     349.735
  H     -221.179    -120.522     349.425
  H     -213.828    -121.909     346.246
  H     -221.364    -120.833     351.788
  H     -214.286    -121.889     347.912
  H     -219.098    -122.522     351.985
  H     -221.587    -123.211     351.940
  H     -221.420    -123.268     350.166
  P     -219.772    -120.253     353.837
  C     -220.886    -117.955     354.306
  O     -221.067    -119.361     354.184
  O     -218.564    -119.429     354.500
  O     -219.813    -121.661     354.337
  H     -217.934    -120.049     354.921
  H     -221.823    -117.493     354.537
  H     -220.512    -117.562     353.384
  H     -220.186    -117.752     355.090

 6  7  8  9  10  11  12  13  14  15  26  29  33  34 0
 6-311+G(2d,p)
 ****
 36  38  39  40  41 0
 6-311+G(2d,p)
 ****
 1  2  3  4  5  16  17  18  19  20  21  22  23  24  25 0
 3-21G
 ****
 27  28  30  31  32  35  37  42  43  44  45  46  47 0
 3-21G
 ****
 48  49 0
 3-21G
 ****


