%nproc=1
%NoSave
%Mem=1900MB
#P OB98/GEN NMR

erre ene a

0 1
  C      160.838    -639.667    -244.276
  O      159.828    -639.951    -243.301
  P      158.980    -641.320    -243.373
  C      158.758    -641.575    -240.826
  O      158.057    -641.426    -242.058
  C      157.848    -641.726    -239.614
  O      157.128    -640.489    -239.347
  C      156.795    -642.832    -239.725
  O      156.613    -643.336    -238.398
  C      155.564    -642.077    -240.189
  O      154.360    -642.784    -239.963
  C      155.714    -640.765    -239.398
  N      154.960    -639.667    -240.000
  C      153.580    -639.826    -240.087
  O      153.047    -640.876    -239.724
  N      152.824    -638.803    -240.627
  C      153.423    -637.762    -241.133
  N      152.637    -636.801    -241.674
  C      154.893    -637.591    -241.131
  C      155.588    -638.570    -240.539
  O      159.798    -642.539    -243.657
  O      157.920    -641.057    -244.544
  H      154.371    -643.150    -239.056
  H      157.707    -641.905    -244.978
  H      155.349    -636.725    -241.591
  H      156.675    -638.540    -240.486
  H      155.369    -640.896    -238.358
  H      155.644    -641.873    -241.266
  H      157.078    -643.634    -240.412
  H      158.485    -641.903    -238.737
  H      151.629    -636.964    -241.681
  H      159.408    -640.701    -240.692
  H      153.003    -636.013    -242.184
  H      159.419    -642.453    -240.900
  P      156.941    -644.857    -238.012
  C      157.711    -644.050    -235.703
  O      156.886    -644.955    -236.409
  O      158.178    -645.411    -238.619
  O      155.646    -645.686    -238.480
  H      155.873    -646.631    -238.528
  H      157.446    -644.057    -234.643
  H      157.600    -643.031    -236.092
  H      158.760    -644.358    -235.808
  H      161.285    -638.719    -244.060
  H      160.396    -639.639    -245.250
  H      161.587    -640.430    -244.246

 3  4  5  6  7  8  9  10  11  12  13  23  27  28  29  30  32 0
 6-311+G(2d,p)
 ****
 34  35 0
 6-311+G(2d,p)
 ****
 1  2  14  15  16  17  18  19  20  21  22  24  25  26 0
 3-21G
 ****
 31  33  36  37  38  39  40  41  42  43  44  45  46 0
 3-21G
 ****


