%nproc=1
%NoSave
%Mem=1900MB
#P OB98/GEN NMR

erre ene a

0 1
  C      224.005    -116.454     102.993
  O      224.428    -116.021     104.294
  P      223.584    -114.847     104.989
  C      221.822    -115.221     106.878
  O      223.183    -115.317     106.471
  C      221.625    -115.904     108.233
  O      222.013    -117.291     108.171
  C      222.474    -115.297     109.339
  O      221.899    -114.093     109.803
  C      222.485    -116.422     110.378
  O      221.387    -116.296     111.301
  C      222.344    -117.697     109.516
  N      223.538    -118.526     109.542
  C      223.736    -119.274     110.706
  O      222.935    -119.198     111.641
  N      224.846    -120.079     110.790
  C      225.702    -120.103     109.804
  N      226.785    -120.914     109.947
  C      225.538    -119.303     108.570
  C      224.449    -118.546     108.511
  O      222.191    -114.879     104.202
  O      224.240    -113.505     104.909
  H      221.332    -117.150     111.760
  H      221.818    -113.981     104.143
  H      226.284    -119.348     107.784
  H      224.257    -117.922     107.642
  H      221.503    -118.304     109.877
  H      223.404    -116.395     110.982
  H      223.498    -115.121     108.979
  H      220.559    -115.849     108.502
  H      226.863    -121.446     110.803
  H      221.171    -115.679     106.128
  H      227.514    -121.005     109.247
  H      221.544    -114.154     106.928
  P      222.685    -112.732     109.521
  C      222.125    -110.230     109.737
  O      221.647    -111.559     109.881
  O      222.705    -112.676     107.917
  O      224.061    -112.596     110.097
  H      223.251    -111.926     107.609
  H      221.266    -109.542     109.809
  H      222.600    -110.102     108.769
  H      222.830    -109.997     110.537
  H      224.651    -117.235     102.650
  H      224.048    -115.630     102.311
  H      223.001    -116.819     103.048

 3  4  5  6  7  8  9  10  11  12  13  21  23  27  28  29  30  32 0
 6-311+G(2d,p)
 ****
 34  35 0
 6-311+G(2d,p)
 ****
 1  2  14  15  16  17  18  19  20  22  24  25  26 0
 3-21G
 ****
 31  33  36  37  38  39  40  41  42  43  44  45  46 0
 3-21G
 ****


