%nproc=1
%NoSave
%Mem=1900MB
#P OB98/GEN NMR

erre ene a

0 1
  C     -893.040     269.199    -914.531
  O     -892.080     269.209    -915.576
  P     -892.330     270.152    -916.849
  C     -894.530     268.956    -917.726
  O     -893.880     270.118    -917.267
  C     -896.010     268.988    -917.304
  O     -896.580     270.258    -917.655
  C     -896.850     267.899    -917.954
  O     -896.830     266.696    -917.231
  C     -898.220     268.545    -917.982
  O     -898.840     268.476    -916.674
  C     -897.870     270.024    -918.329
  N     -897.710     270.377    -919.745
  C     -898.850     270.680    -920.526
  O     -900.000     270.674    -920.073
  N     -898.620     271.012    -921.821
  C     -897.400     271.243    -922.409
  O     -897.270     271.613    -923.576
  C     -896.250     271.068    -921.514
  C     -896.440     270.648    -920.272
  O     -891.600     269.374    -918.058
  O     -891.810     271.550    -916.692
  H     -898.310     269.046    -916.085
  H     -890.850     269.896    -918.384
  H     -899.430     271.180    -922.409
  H     -895.260     271.276    -921.928
  H     -895.590     270.485    -919.604
  H     -898.600     270.712    -917.892
  H     -898.900     268.034    -918.666
  H     -896.530     267.741    -918.986
  H     -896.050     268.880    -916.202
  H     -894.040     268.064    -917.331
  H     -894.450     268.890    -918.825
  P     -895.930     265.457    -917.771
  C     -898.000     264.557    -918.971
  O     -896.660     264.966    -919.112
  O     -895.590     264.387    -916.783
  O     -894.610     266.191    -918.362
  H     -893.880     266.157    -917.678
  H     -898.440     264.385    -919.969
  H     -898.610     265.317    -918.466
  H     -898.050     263.595    -918.403
  H     -892.725     268.523    -913.764
  H     -893.986     268.883    -914.919
  H     -893.133     270.184    -914.123

 3  4  5  6  7  8  9  10  11  12  13  23  28  29  30  31  32 0
 6-311+G(2d,p)
 ****
 33  34 0
 6-311+G(2d,p)
 ****
 1  2  14  15  16  17  18  19  20  21  22  24  25  26  27 0
 3-21G
 ****
 35  36  37  38  39  40  41  42  43  44  45 0
 3-21G
 ****


