%nproc=1
%NoSave
%Mem=1900MB
#P OB98/GEN NMR

erre ene a

0 1
  C      333.908      85.875     -88.654
  O      334.364      87.050     -88.018
  P      335.909      87.381     -87.793
  C      335.800      86.688     -85.290
  O      336.436      86.506     -86.551
  C      335.574      85.369     -84.536
  O      334.821      84.463     -85.371
  C      336.913      84.685     -84.253
  O      337.684      85.065     -83.129
  C      336.627      83.194     -84.363
  O      336.423      82.579     -83.089
  C      335.347      83.137     -85.197
  N      336.558      78.940     -87.771
  C      336.205      79.075     -86.442
  N      336.388      77.981     -85.669
  N      335.746      80.183     -85.924
  C      335.711      81.216     -86.798
  C      336.020      81.202     -88.140
  C      336.487      79.959     -88.708
  O      336.888      79.821     -89.862
  N      335.938      82.451     -88.696
  C      335.619      83.235     -87.684
  N      335.511      82.535     -86.504
  O      336.309      88.819     -87.875
  O      336.582      86.624     -89.050
  H      336.231      81.636     -83.238
  H      337.352      87.152     -89.334
  H      336.981      78.082     -88.097
  H      335.492      84.308     -87.745
  H      334.572      82.563     -84.677
  H      337.472      82.669     -84.823
  H      336.874      77.161     -86.003
  H      337.568      84.910     -85.106
  H      336.304      78.092     -84.666
  H      334.961      85.528     -83.645
  H      334.850      87.197     -85.474
  H      336.407      87.355     -84.672
  P      339.204      85.559     -83.142
  C      339.847      83.239     -82.280
  O      340.154      84.273     -83.198
  O      339.449      86.117     -81.661
  O      339.515      86.615     -84.152
  H      340.200      86.744     -81.664
  H      340.710      82.572     -82.194
  H      338.990      82.666     -82.644
  H      339.614      83.648     -81.292
  H      332.838      85.879     -88.686
  H      334.245      85.019     -88.107
  H      334.295      85.836     -89.651

 3  4  5  6  7  8  9  10  11  12  23  26  30  31 0
 6-311+G(2d,p)
 ****
 33  35  36  37  38 0
 6-311+G(2d,p)
 ****
 1  2  13  14  15  16  17  18  19  20  21  22  24  25 0
 3-21G
 ****
 27  28  29  32  34  39  40  41  42  43  44  45  46  47  48  49 0
 3-21G
 ****


