%nproc=1
%NoSave
%Mem=1900MB
#P OB98/GEN NMR

erre ene a

0 1
  C      339.590     639.965    -135.615
  O      338.793     639.532    -134.533
  H      339.027     640.712    -136.188
  H      339.833     639.126    -136.270
  H      340.510     640.427    -135.243
  P      339.387     638.360    -133.619
  C      340.426     636.027    -134.113
  O      339.581     637.077    -134.568
  C      340.930     635.224    -135.310
  O      341.667     636.084    -136.214
  C      341.887     634.097    -134.943
  O      341.225     632.951    -134.452
  C      342.555     633.850    -136.290
  O      341.788     632.962    -137.115
  C      342.623     635.260    -136.900
  N      343.979     635.814    -136.835
  C      344.911     635.259    -137.718
  O      344.625     634.371    -138.512
  N      346.180     635.748    -137.638
  C      346.620     636.677    -136.727
  O      347.802     637.028    -136.663
  C      345.601     637.214    -135.807
  C      344.345     636.760    -135.895
  O      338.144     637.951    -132.690
  O      340.587     638.739    -132.812
  H      338.289     638.283    -131.783
  H      341.716     632.123    -136.620
  H      346.869     635.361    -138.263
  H      345.932     637.952    -135.082
  H      343.593     637.135    -135.211
  H      342.326     635.239    -137.953
  H      343.536     633.390    -136.160
  H      342.645     634.464    -134.235
  H      340.063     634.822    -135.856
  H      339.861     635.358    -133.457
  H      341.263     636.462    -133.547
  P      342.082     631.908    -133.581
  C      344.332     630.734    -134.259
  O      343.020     631.141    -134.621
  O      340.941     630.841    -133.192
  O      342.771     632.545    -132.423
  H      340.225     630.824    -133.852
  H      344.794     630.240    -135.088
  H      344.280     630.062    -133.428
  H      344.910     631.593    -133.988

 6  7  8  9  10  11  12  13  14  15  16  27  31  32  33  34  35 0
 6-311+G(2d,p)
 ****
 36  37 0
 6-311+G(2d,p)
 ****
 1  2  3  4  5  17  18  19  20  21  22  23  24  25 0
 3-21G
 ****
 26  28  29  30  38  39  40  41  42  43  44  45 0
 3-21G
 ****


