%nproc=1
%NoSave
%Mem=1900MB
#P OB98/GEN NMR

erre ene a

0 1
  C     -114.986     105.837     137.371
  O     -116.246     106.499     137.536
  P     -117.565     105.595     137.639
  C     -119.425     104.774     136.016
  O     -118.287     105.601     136.208
  C     -119.863     104.801     134.548
  O     -120.534     106.036     134.212
  C     -118.705     104.675     133.564
  O     -118.324     103.321     133.367
  C     -119.340     105.223     132.295
  O     -120.155     104.207     131.676
  C     -120.218     106.361     132.835
  N     -120.140     110.844     130.491
  C     -120.961     109.751     130.294
  N     -121.908     109.873     129.337
  N     -120.864     108.638     130.975
  C     -119.887     108.666     131.910
  C     -119.008     109.686     132.197
  C     -119.116     110.906     131.429
  O     -118.407     111.903     131.548
  N     -118.155     109.339     133.210
  C     -118.522     108.118     133.550
  N     -119.562     107.657     132.778
  O     -118.545     106.495     138.530
  O     -117.341     104.250     138.249
  H     -119.561     103.461     131.469
  H     -119.168     105.924     139.019
  H     -120.255     111.673     129.935
  H     -118.075     107.530     134.341
  H     -121.165     106.454     132.291
  H     -118.594     105.525     131.552
  H     -122.069     110.717     128.808
  H     -117.857     105.307     133.865
  H     -122.542     109.093     129.202
  H     -120.562     103.970     134.383
  H     -120.249     105.108     136.653
  H     -119.188     103.759     136.346
  P     -116.819     102.906     133.734
  C     -114.519     103.863     132.996
  O     -115.883     103.656     132.674
  O     -116.757     101.369     133.292
  O     -116.455     103.083     135.171
  H     -116.138     100.881     133.866
  H     -114.005     104.234     132.107
  H     -114.049     102.931     133.314
  H     -114.433     104.612     133.790
  H     -114.204     106.566     137.318
  H     -115.000     105.263     136.468
  H     -114.813     105.188     138.203

 3  4  5  6  7  8  9  10  11  12  23  26  30  31 0
 6-311+G(2d,p)
 ****
 33  35  36  37  38 0
 6-311+G(2d,p)
 ****
 1  2  13  14  15  16  17  18  19  20  21  22  24  25 0
 3-21G
 ****
 27  28  29  32  34  39  40  41  42  43  44  45  46  47  48  49 0
 3-21G
 ****


