%nproc=1
%NoSave
%Mem=1900MB
#P OB98/GEN NMR

erre ene a

0 1
  C      591.238    -469.384    -183.053
  O      589.874    -469.246    -183.398
  H      591.333    -469.819    -182.051
  H      591.717    -470.053    -183.772
  H      591.740    -468.413    -183.084
  P      588.984    -468.289    -182.465
  C      587.853    -467.321    -184.596
  O      587.676    -467.936    -183.326
  C      586.568    -467.452    -185.412
  O      586.411    -468.813    -185.871
  C      585.298    -467.124    -184.635
  O      585.064    -465.730    -184.556
  C      584.258    -467.810    -185.504
  O      583.997    -467.014    -186.674
  C      584.984    -469.105    -185.896
  N      581.902    -473.092    -184.983
  C      581.903    -472.155    -185.952
  N      582.755    -471.123    -186.124
  C      583.685    -471.111    -185.155
  C      583.812    -471.995    -184.098
  C      582.865    -473.034    -184.030
  N      582.855    -473.985    -183.032
  N      584.876    -471.640    -183.285
  C      585.399    -470.584    -183.871
  N      584.711    -470.214    -184.997
  O      589.797    -466.910    -182.458
  O      588.709    -468.798    -181.088
  H      583.654    -466.156    -186.355
  H      589.536    -466.371    -181.685
  H      581.109    -472.245    -186.691
  H      586.269    -470.043    -183.516
  H      584.733    -469.439    -186.910
  H      583.303    -467.957    -184.996
  H      585.299    -467.589    -183.643
  H      586.662    -466.810    -186.296
  H      588.670    -467.817    -185.123
  H      582.037    -474.566    -182.971
  H      583.472    -473.860    -182.246
  H      588.109    -466.265    -184.449
  P      584.823    -465.106    -183.098
  C      585.603    -462.762    -183.921
  O      584.564    -463.538    -183.326
  O      586.280    -465.148    -182.438
  O      583.805    -465.818    -182.269
  H      586.222    -465.196    -181.465
  H      585.284    -461.744    -184.007
  H      585.825    -463.149    -184.894
  H      586.479    -462.811    -183.309

 6  7  8  9  10  11  12  13  14  15  25  28  32  33  34  35 0
 6-311+G(2d,p)
 ****
 36  39  40 0
 6-311+G(2d,p)
 ****
 1  2  3  4  5  16  17  18  19  20  21  22  23  24 0
 3-21G
 ****
 26  27  29  30  31  37  38  41  42  43  44  45  46  47 0
 3-21G
 ****
 48 0
 3-21G
 ****


