%nproc=1
%NoSave
%Mem=1900MB
#P OB98/GEN NMR

erre ene a

0 1
  C      -36.316     -32.161    -293.278
  O      -37.291     -33.173    -293.427
  H      -36.753     -31.332    -292.717
  H      -36.008     -31.796    -294.260
  H      -35.450     -32.542    -292.732
  P      -36.827     -34.527    -294.150
  C      -37.123     -36.130    -292.134
  O      -37.600     -35.726    -293.408
  C      -38.250     -36.743    -291.305
  O      -39.082     -35.668    -290.773
  C      -39.170     -37.689    -292.090
  O      -39.584     -38.740    -291.209
  C      -40.381     -36.818    -292.386
  O      -41.552     -37.581    -292.665
  C      -40.446     -36.002    -291.095
  N      -44.646     -33.763    -289.464
  C      -44.053     -34.949    -289.077
  N      -44.676     -35.651    -288.105
  N      -42.948     -35.410    -289.598
  C      -42.416     -34.589    -290.536
  C      -42.905     -33.395    -291.010
  C      -44.147     -32.909    -290.442
  O      -44.728     -31.875    -290.756
  N      -42.087     -32.879    -291.986
  C      -41.109     -33.760    -292.098
  N      -41.265     -34.813    -291.240
  O      -35.314     -34.689    -293.652
  O      -36.929     -34.526    -295.638
  H      -41.413     -38.042    -293.519
  H      -34.701     -34.290    -294.298
  H      -45.505     -33.461    -289.038
  H      -40.274     -33.684    -292.781
  H      -40.867     -36.576    -290.261
  H      -40.180     -36.170    -293.249
  H      -45.504     -35.336    -287.625
  H      -38.717     -38.116    -292.990
  H      -44.234     -36.502    -287.779
  H      -37.809     -37.255    -290.441
  H      -36.727     -35.254    -291.608
  H      -36.317     -36.861    -292.265
  P      -40.302     -40.020    -291.848
  C      -38.565     -41.692    -290.871
  O      -39.926     -41.299    -290.957
  O      -39.462     -40.267    -293.190
  O      -41.755     -39.832    -292.134
  H      -40.025     -40.700    -293.857
  H      -38.482     -42.555    -290.244
  H      -37.988     -40.892    -290.455
  H      -38.199     -41.925    -291.849

 6  7  8  9  10  11  12  13  14  15  26  29  33  34 0
 6-311+G(2d,p)
 ****
 36  38  39  40  41 0
 6-311+G(2d,p)
 ****
 1  2  3  4  5  16  17  18  19  20  21  22  23  24  25 0
 3-21G
 ****
 27  28  30  31  32  35  37  42  43  44  45  46  47 0
 3-21G
 ****
 48  49 0
 3-21G
 ****


