%nproc=1
%NoSave
%Mem=1900MB
#P OB98/GEN NMR

erre ene a

0 1
  C      672.296     382.562     -27.669
  O      673.046     382.146     -26.548
  P      674.224     381.066     -26.686
  C      673.381     380.047     -24.473
  O      674.511     380.507     -25.207
  C      673.829     379.417     -23.146
  O      674.634     378.231     -23.446
  C      674.680     380.364     -22.287
  O      674.222     380.523     -20.942
  C      676.083     379.788     -22.433
  O      676.970     380.171     -21.400
  C      675.781     378.295     -22.576
  N      676.928     377.545     -23.108
  C      678.025     377.387     -22.268
  O      678.093     377.820     -21.121
  N      679.100     376.742     -22.812
  C      679.243     376.363     -24.112
  O      680.271     375.887     -24.556
  C      678.058     376.595     -24.969
  C      676.959     377.140     -24.426
  O      675.436     381.529     -27.416
  O      673.489     379.815     -27.375
  H      676.563     379.922     -20.546
  H      672.742     379.453     -26.867
  H      679.911     376.625     -22.215
  H      678.135     376.314     -26.001
  H      676.079     377.323     -25.031
  H      675.497     377.849     -21.623
  H      676.502     380.168     -23.376
  H      674.663     381.390     -22.694
  H      672.930     379.095     -22.612
  H      672.857     379.296     -25.069
  H      672.690     380.876     -24.300
  P      673.648     381.880     -20.318
  C      675.597     382.277     -18.642
  O      674.221     382.025     -18.831
  O      672.169     382.068     -20.449
  O      674.433     383.026     -21.122
  H      673.877     383.824     -21.174
  H      675.902     381.859     -17.676
  H      675.769     383.352     -18.624
  H      676.201     381.825     -19.435
  H      671.566     383.281     -27.362
  H      671.804     381.717     -28.103
  H      672.950     383.003     -28.392

 3  4  5  6  7  8  9  10  11  12  13  23  28  29  30  31  32 0
 6-311+G(2d,p)
 ****
 33  34 0
 6-311+G(2d,p)
 ****
 1  2  14  15  16  17  18  19  20  21  22  24  25  26  27 0
 3-21G
 ****
 35  36  37  38  39  40  41  42  43  44  45 0
 3-21G
 ****


