%nproc=1
%NoSave
%Mem=1900MB
#P OB98/GEN NMR

erre ene a

0 1
  C      128.235       8.181     -29.527
  O      128.895       7.712     -30.703
  P      128.453       8.063     -32.195
  C      129.649       8.095     -34.528
  O      129.646       7.651     -33.180
  C      130.931       7.707     -35.290
  O      132.037       8.522     -34.821
  C      131.306       6.251     -34.999
  O      130.697       5.201     -35.726
  C      132.829       6.231     -35.041
  O      133.337       5.861     -36.322
  C      133.206       7.681     -34.715
  N      137.502       7.769     -31.933
  C      137.338       7.511     -33.279
  N      138.455       7.186     -33.970
  N      136.185       7.551     -33.891
  C      135.143       7.801     -33.069
  C      135.172       8.053     -31.713
  C      136.465       8.064     -31.056
  O      136.665       8.296     -29.868
  N      133.911       8.244     -31.209
  C      133.120       8.084     -32.247
  N      133.821       7.820     -33.404
  O      127.849       9.413     -32.389
  O      127.308       6.967     -32.509
  H      132.975       4.986     -36.549
  H      126.666       7.399     -33.110
  H      138.417       7.749     -31.519
  H      132.037       8.153     -32.221
  H      133.935       8.072     -35.440
  H      133.223       5.503     -34.327
  H      139.350       7.021     -33.537
  H      131.042       6.058     -33.953
  H      138.311       6.786     -34.900
  H      130.829       7.923     -36.358
  H      129.534       9.183     -34.506
  H      128.776       7.704     -35.055
  P      129.402       4.371     -35.282
  C      127.416       3.228     -36.433
  O      128.701       3.801     -36.603
  O      128.369       5.493     -34.793
  O      129.635       3.362     -34.205
  H      127.653       5.092     -34.265
  H      127.179       2.614     -37.306
  H      126.670       4.024     -36.347
  H      127.382       2.599     -35.536
  H      128.734       7.798     -28.661
  H      127.219       7.846     -29.531
  H      128.258       9.251     -29.508

 3  4  5  6  7  8  9  10  11  12  23  26  30  31 0
 6-311+G(2d,p)
 ****
 33  35  36  37  38 0
 6-311+G(2d,p)
 ****
 1  2  13  14  15  16  17  18  19  20  21  22  24  25 0
 3-21G
 ****
 27  28  29  32  34  39  40  41  42  43  44  45  46  47  48  49 0
 3-21G
 ****


