%nproc=1
%NoSave
%Mem=1900MB
#P OB98/GEN NMR

erre ene a

0 1
  C      472.356    1224.231     510.913
  O      473.126    1225.209     510.249
  H      472.935    1223.307     510.969
  H      471.438    1224.039     510.346
  H      472.103    1224.549     511.929
  P      472.734    1226.748     510.418
  C      472.186    1227.639     508.056
  O      473.165    1227.531     509.085
  C      472.740    1228.330     506.812
  O      473.212    1229.645     507.156
  C      473.935    1227.577     506.209
  O      473.588    1226.561     505.287
  C      474.694    1228.700     505.512
  O      474.216    1228.906     504.174
  C      474.385    1229.932     506.382
  N      477.711    1233.528     507.873
  C      476.828    1233.538     506.797
  N      476.888    1234.638     506.012
  N      476.008    1232.567     506.529
  C      476.142    1231.495     507.340
  C      476.984    1231.361     508.432
  C      477.833    1232.474     508.768
  O      478.616    1232.515     509.720
  N      476.869    1230.118     508.992
  C      476.032    1229.470     508.203
  N      475.495    1230.300     507.240
  O      473.799    1227.287     511.493
  O      471.332    1227.011     510.892
  H      474.320    1228.075     503.682
  H      473.394    1227.999     512.031
  H      478.297    1234.318     508.054
  H      475.737    1228.432     508.313
  H      474.150    1230.807     505.763
  H      475.755    1228.468     505.435
  H      477.568    1235.382     506.121
  H      474.575    1227.170     506.998
  H      476.402    1234.612     505.103
  H      471.929    1228.461     506.080
  H      471.363    1228.219     508.471
  H      471.795    1226.648     507.797
  P      474.307    1225.131     505.325
  C      474.810    1225.036     502.736
  O      474.191    1224.470     503.882
  O      473.322    1224.255     506.225
  O      475.699    1225.132     505.858
  H      473.637    1224.192     507.130
  H      474.600    1224.428     501.881
  H      475.868    1225.084     502.889
  H      474.428    1226.022     502.575

 6  7  8  9  10  11  12  13  14  15  26  29  33  34 0
 6-311+G(2d,p)
 ****
 36  38  39  40  41 0
 6-311+G(2d,p)
 ****
 1  2  3  4  5  16  17  18  19  20  21  22  23  24  25 0
 3-21G
 ****
 27  28  30  31  32  35  37  42  43  44  45  46  47 0
 3-21G
 ****
 48  49 0
 3-21G
 ****


