%nproc=1
%NoSave
%Mem=1900MB
#P OB98/GEN NMR

erre ene a

0 1
  C     -335.461     165.978     317.469
  O     -335.832     166.956     316.516
  H     -334.655     166.376     318.086
  H     -335.108     165.071     316.965
  H     -336.314     165.742     318.113
  P     -336.975     166.546     315.466
  C     -336.954     165.312     313.200
  O     -336.204     165.676     314.352
  C     -336.393     164.020     312.587
  O     -335.042     164.276     312.142
  C     -336.346     162.846     313.573
  O     -336.632     161.636     312.863
  C     -334.894     162.837     314.025
  O     -334.489     161.561     314.513
  C     -334.186     163.284     312.747
  N     -329.195     162.239     312.809
  C     -330.263     161.559     312.323
  N     -331.561     161.930     312.324
  C     -331.704     163.160     312.860
  C     -330.718     163.967     313.400
  C     -329.409     163.461     313.372
  N     -328.329     164.122     313.897
  N     -331.274     165.137     313.888
  C     -332.566     165.035     313.646
  N     -332.878     163.843     313.041
  O     -337.797     167.669     314.934
  O     -337.783     165.427     316.278
  H     -333.564     161.632     314.839
  H     -337.179     164.787     316.704
  H     -330.039     160.594     311.876
  H     -333.321     165.783     313.896
  H     -334.043     162.469     312.032
  H     -334.747     163.564     314.830
  H     -337.035     162.962     314.412
  H     -336.986     163.774     311.699
  H     -336.913     166.119     312.455
  H     -327.420     163.683     313.830
  H     -328.458     165.033     314.311
  H     -338.000     165.171     313.504
  P     -337.601     160.554     313.535
  C     -337.520     158.810     315.444
  O     -336.818     159.829     314.741
  O     -338.293     159.626     312.591
  O     -338.670     161.466     314.319
  H     -339.562     161.090     314.203
  H     -336.893     158.412     316.215
  H     -337.790     158.029     314.764
  H     -338.405     159.223     315.882

 6  7  8  9  10  11  12  13  14  15  25  28  32  33  34  35 0
 6-311+G(2d,p)
 ****
 36  39  40 0
 6-311+G(2d,p)
 ****
 1  2  3  4  5  16  17  18  19  20  21  22  23  24 0
 3-21G
 ****
 26  27  29  30  31  37  38  41  42  43  44  45  46  47 0
 3-21G
 ****
 48 0
 3-21G
 ****


