%nproc=1
%NoSave
%Mem=1900MB
#P OB98/GEN NMR

erre ene a

0 1
  C      438.403    -512.611     160.909
  O      438.504    -514.006     161.112
  H      437.941    -512.161     161.792
  H      437.781    -512.395     160.037
  H      439.400    -512.183     160.774
  P      439.123    -514.865     159.907
  C      441.054    -514.448     158.250
  O      440.430    -514.044     159.463
  C      442.519    -514.023     158.236
  O      442.593    -512.579     158.361
  C      443.335    -514.630     159.386
  O      444.644    -514.956     158.918
  C      443.434    -513.490     160.390
  O      444.576    -513.607     161.233
  C      443.441    -512.268     159.474
  N      443.814    -507.179     159.701
  C      444.307    -508.090     158.829
  N      444.146    -509.425     158.829
  C      443.346    -509.805     159.841
  C      442.771    -509.002     160.810
  C      443.039    -507.618     160.715
  N      442.561    -506.696     161.618
  N      442.048    -509.767     161.705
  C      442.171    -511.004     161.275
  N      442.958    -511.080     160.163
  O      438.180    -515.209     158.803
  O      439.750    -516.119     160.687
  H      444.618    -512.811     161.812
  H      440.222    -515.834     161.489
  H      444.921    -507.681     158.026
  H      441.732    -511.878     161.741
  H      444.449    -512.035     159.101
  H      442.543    -513.489     161.029
  H      442.866    -515.508     159.817
  H      442.961    -514.282     157.266
  H      440.541    -513.994     157.393
  H      442.784    -505.725     161.474
  H      441.954    -507.003     162.374
  H      440.969    -515.536     158.169
  P      444.990    -516.501     158.634
  C      443.366    -518.384     157.938
  O      443.889    -517.089     157.627
  O      445.266    -517.334     159.839
  O      446.282    -516.394     157.701
  H      446.896    -517.116     157.925
  H      442.646    -518.665     157.198
  H      442.898    -518.358     158.900
  H      444.163    -519.098     157.948

 6  7  8  9  10  11  12  13  14  15  25  28  32  33  34  35 0
 6-311+G(2d,p)
 ****
 36  39  40 0
 6-311+G(2d,p)
 ****
 1  2  3  4  5  16  17  18  19  20  21  22  23  24 0
 3-21G
 ****
 26  27  29  30  31  37  38  41  42  43  44  45  46  47 0
 3-21G
 ****
 48 0
 3-21G
 ****


