%nproc=1
%NoSave
%Mem=1900MB
#P OB98/GEN NMR

erre ene a

0 1
  C     -385.076     -60.519    -672.337
  O     -385.148     -59.874    -673.596
  H     -386.031     -60.992    -672.099
  H     -384.306     -61.290    -672.384
  H     -384.822     -59.800    -671.552
  P     -386.230     -58.697    -673.745
  C     -388.336     -60.214    -673.760
  O     -387.501     -59.350    -674.496
  C     -389.621     -60.480    -674.559
  O     -390.452     -59.290    -674.602
  C     -389.369     -60.878    -676.026
  O     -389.048     -62.238    -676.159
  C     -390.751     -60.572    -676.607
  O     -391.670     -61.634    -676.274
  C     -391.132     -59.269    -675.884
  N     -391.151     -56.957    -680.455
  C     -391.564     -58.170    -680.035
  N     -391.523     -58.726    -678.814
  C     -390.965     -57.870    -677.944
  C     -390.477     -56.605    -678.191
  C     -390.589     -56.138    -679.539
  N     -390.148     -54.893    -679.948
  N     -389.953     -56.034    -677.061
  C     -390.154     -56.936    -676.116
  N     -390.749     -58.067    -676.610
  O     -385.589     -57.748    -674.856
  O     -386.564     -57.957    -672.484
  H     -392.008     -61.444    -675.388
  H     -385.992     -56.846    -674.802
  H     -392.018     -58.798    -680.838
  H     -389.867     -56.820    -675.067
  H     -392.212     -59.197    -675.676
  H     -390.732     -60.494    -677.697
  H     -388.624     -60.222    -676.493
  H     -390.180     -61.281    -674.038
  H     -388.603     -59.745    -672.801
  H     -390.101     -54.745    -680.937
  H     -389.590     -54.368    -679.285
  H     -387.807     -61.157    -673.561
  P     -387.745     -62.594    -677.040
  C     -388.832     -61.551    -679.148
  O     -388.229     -62.707    -678.559
  O     -387.433     -64.126    -676.625
  O     -386.561     -61.700    -676.779
  H     -386.485     -64.343    -676.733
  H     -389.105     -61.768    -680.160
  H     -388.136     -60.739    -679.133
  H     -389.706     -61.282    -678.592

 6  7  8  9  10  11  12  13  14  15  25  28  32  33  34  35 0
 6-311+G(2d,p)
 ****
 36  39  40 0
 6-311+G(2d,p)
 ****
 1  2  3  4  5  16  17  18  19  20  21  22  23  24 0
 3-21G
 ****
 26  27  29  30  31  37  38  41  42  43  44  45  46  47 0
 3-21G
 ****
 48 0
 3-21G
 ****


