%nproc=1
%NoSave
%Mem=1900MB
#P OB98/GEN NMR

erre ene a

0 1
  C     -697.117    -205.199     260.787
  O     -698.289    -204.462     261.059
  H     -696.739    -204.904     259.804
  H     -697.354    -206.267     260.767
  H     -696.340    -205.009     261.531
  P     -698.789    -204.342     262.573
  C     -700.566    -206.214     262.502
  O     -699.318    -205.786     263.039
  C     -700.972    -207.588     263.044
  O     -700.020    -208.583     262.615
  C     -700.997    -207.628     264.579
  O     -702.219    -207.216     265.156
  C     -700.728    -209.106     264.854
  O     -701.954    -209.863     264.878
  C     -699.855    -209.540     263.671
  N     -695.875    -212.632     264.533
  C     -697.206    -212.964     264.357
  N     -697.509    -214.277     264.468
  N     -698.140    -212.081     264.125
  C     -697.698    -210.803     264.137
  C     -696.406    -210.354     264.317
  C     -695.366    -211.342     264.505
  O     -694.175    -211.106     264.643
  N     -696.342    -208.981     264.310
  C     -697.605    -208.602     264.219
  N     -698.454    -209.670     264.031
  O     -700.146    -203.499     262.454
  O     -697.836    -203.678     263.520
  H     -702.425    -209.650     265.714
  H     -700.272    -202.961     263.258
  H     -695.198    -213.356     264.679
  H     -697.950    -207.578     264.236
  H     -700.176    -210.512     263.276
  H     -700.256    -209.239     265.832
  H     -696.847    -214.986     264.735
  H     -700.164    -207.050     264.990
  H     -698.498    -214.538     264.536
  H     -701.947    -207.869     262.620
  H     -700.435    -206.268     261.420
  H     -701.344    -205.476     262.705
  P     -702.245    -206.174     266.370
  C     -702.256    -207.906     268.345
  O     -701.592    -206.883     267.650
  O     -703.793    -206.090     266.751
  O     -701.657    -204.835     266.076
  H     -704.197    -205.297     266.351
  H     -701.647    -208.237     269.160
  H     -702.441    -208.726     267.682
  H     -703.186    -207.535     268.722

 6  7  8  9  10  11  12  13  14  15  26  29  33  34 0
 6-311+G(2d,p)
 ****
 36  38  39  40  41 0
 6-311+G(2d,p)
 ****
 1  2  3  4  5  16  17  18  19  20  21  22  23  24  25 0
 3-21G
 ****
 27  28  30  31  32  35  37  42  43  44  45  46  47 0
 3-21G
 ****
 48  49 0
 3-21G
 ****


