%nproc=1
%NoSave
%Mem=1900MB
#P OB98/GEN NMR

erre ene a

0 1
  C     1391.527     380.392    -163.398
  O     1391.660     379.183    -162.685
  P     1392.988     378.322    -162.943
  C     1391.996     376.238    -161.711
  O     1392.560     376.771    -162.891
  C     1390.927     375.205    -162.064
  O     1391.429     374.282    -163.046
  C     1390.455     374.378    -160.877
  O     1389.559     375.073    -160.054
  C     1389.831     373.179    -161.585
  O     1388.469     373.469    -161.983
  C     1390.731     373.015    -162.821
  N     1391.689     371.904    -162.662
  C     1391.988     371.217    -163.835
  O     1391.457     371.470    -164.938
  N     1392.872     370.182    -163.693
  C     1393.455     369.751    -162.524
  O     1394.182     368.787    -162.476
  C     1393.074     370.530    -161.318
  C     1392.223     371.542    -161.459
  O     1393.850     378.511    -161.582
  O     1393.768     378.726    -164.157
  H     1388.224     372.782    -162.654
  H     1394.787     378.562    -161.805
  H     1393.129     369.675    -164.548
  H     1393.515     370.211    -160.392
  H     1391.925     372.118    -160.581
  H     1390.127     372.840    -163.712
  H     1389.776     372.290    -160.935
  H     1391.334     374.053    -160.301
  H     1390.076     375.742    -162.518
  H     1391.572     377.044    -161.130
  H     1392.798     375.775    -161.108
  P     1389.737     374.956    -158.473
  C     1389.581     377.593    -158.329
  O     1389.134     376.319    -157.871
  O     1391.341     375.149    -158.340
  O     1389.220     373.673    -157.913
  H     1391.685     375.744    -159.033
  H     1389.802     377.556    -159.397
  H     1390.469     377.870    -157.770
  H     1388.796     378.305    -158.159
  H     1390.603     380.862    -163.134
  H     1391.536     380.189    -164.449
  H     1392.341     381.042    -163.153

 3  4  5  6  7  8  9  10  11  12  13  23  28  29  30  31  32 0
 6-311+G(2d,p)
 ****
 33  34 0
 6-311+G(2d,p)
 ****
 1  2  14  15  16  17  18  19  20  21  22  24  25  26 0
 3-21G
 ****
 27  35  36  37  38  39  40  41  42  43  44  45 0
 3-21G
 ****


