%nproc=1
%NoSave
%Mem=1900MB
#P OB98/GEN NMR

erre ene a

0 1
  C      252.454     -43.447     -70.020
  O      252.684     -42.069     -69.784
  P      252.734     -41.027     -70.995
  C      251.835     -38.947     -69.668
  O      252.882     -39.558     -70.390
  C      252.359     -37.655     -69.031
  O      252.927     -37.934     -67.734
  C      253.441     -37.004     -69.890
  O      252.877     -36.017     -70.739
  C      254.392     -36.438     -68.852
  O      253.906     -35.177     -68.357
  C      254.319     -37.514     -67.742
  N      255.158     -38.720     -67.886
  C      256.542     -38.591     -67.947
  O      257.132     -37.518     -67.858
  N      257.240     -39.756     -68.144
  C      256.696     -41.005     -68.234
  O      257.294     -41.992     -68.646
  C      255.274     -41.101     -67.891
  C      254.578     -39.974     -67.758
  O      251.234     -41.049     -71.552
  O      253.733     -41.330     -72.062
  H      253.038     -35.344     -67.949
  H      251.167     -41.625     -72.336
  H      258.232     -39.654     -68.328
  H      254.831     -42.085     -67.811
  H      253.513     -40.021     -67.542
  H      254.542     -37.081     -66.762
  H      255.371     -36.238     -69.283
  H      253.972     -37.767     -70.473
  H      251.520     -36.963     -68.888
  H      251.464     -39.630     -68.895
  H      250.996     -38.726     -70.335
  P      253.627     -35.623     -72.095
  C      251.449     -34.730     -73.111
  O      252.770     -34.417     -72.716
  O      253.910     -36.753     -73.029
  O      254.973     -34.923     -71.582
  H      255.711     -35.569     -71.601
  H      250.923     -33.802     -73.342
  H      250.921     -35.250     -72.306
  H      251.470     -35.357     -74.006
  H      252.457     -43.974     -69.089
  H      253.226     -43.834     -70.652
  H      251.505     -43.573     -70.498

 3  4  5  6  7  8  9  10  11  12  13  23  28  29  30  31  32 0
 6-311+G(2d,p)
 ****
 33  34 0
 6-311+G(2d,p)
 ****
 1  2  14  15  16  17  18  19  20  21  22  24  25  26  27 0
 3-21G
 ****
 35  36  37  38  39  40  41  42  43  44  45 0
 3-21G
 ****


