%nproc=1
%NoSave
%Mem=1900MB
#P OB98/GEN NMR

erre ene a

0 1
  C      -76.635    -351.841    -148.574
  O      -75.284    -351.418    -148.377
  P      -74.427    -352.190    -147.258
  C      -72.008    -351.627    -148.079
  O      -73.038    -351.387    -147.137
  C      -72.327    -350.956    -149.420
  O      -72.402    -349.512    -149.243
  C      -71.304    -351.237    -150.526
  O      -72.040    -351.355    -151.753
  C      -70.458    -349.979    -150.542
  O      -69.783    -349.799    -151.775
  C      -71.520    -348.921    -150.221
  N      -70.943    -347.668    -149.737
  C      -70.104    -346.987    -150.611
  O      -69.774    -347.431    -151.709
  N      -69.609    -345.793    -150.156
  C      -69.811    -345.268    -148.911
  O      -69.345    -344.191    -148.553
  C      -70.616    -346.087    -147.992
  C      -71.136    -347.234    -148.442
  O      -74.042    -353.534    -148.026
  O      -75.173    -352.377    -145.979
  H      -73.859    -353.404    -148.974
  H      -69.336    -348.930    -151.771
  H      -69.022    -345.267    -150.782
  H      -70.747    -345.731    -146.978
  H      -71.712    -347.870    -147.787
  H      -72.123    -348.704    -151.110
  H      -69.708    -350.025    -149.739
  H      -70.728    -352.150    -150.354
  H      -73.321    -351.294    -149.740
  H      -71.895    -352.705    -148.241
  H      -71.058    -351.266    -147.670
  P      -72.386    -352.831    -152.299
  C      -74.575    -352.533    -153.699
  O      -73.173    -352.649    -153.682
  O      -73.548    -353.240    -151.273
  O      -71.242    -353.788    -152.289
  H      -74.216    -352.546    -151.158
  H      -74.888    -352.182    -154.688
  H      -74.922    -351.811    -152.954
  H      -75.033    -353.506    -153.512
  H      -77.086    -351.248    -149.342
  H      -77.183    -351.721    -147.663
  H      -76.648    -352.871    -148.865

 3  4  5  6  7  8  9  10  11  12  13  24  28  29  30  31  32 0
 6-311+G(2d,p)
 ****
 33  34 0
 6-311+G(2d,p)
 ****
 1  2  14  15  16  17  18  19  20  21  22  23  25  26  27 0
 3-21G
 ****
 35  36  37  38  39  40  41  42  43  44  45 0
 3-21G
 ****


