%nproc=1
%NoSave
%Mem=1900MB
#P OB98/GEN NMR

erre ene a

0 1
  C      -14.590     -39.704     -33.450
  O      -14.816     -39.677     -32.052
  P      -14.834     -41.064     -31.253
  C      -12.946     -42.620     -30.374
  O      -13.374     -41.717     -31.380
  C      -12.275     -43.842     -31.005
  O      -13.234     -44.530     -31.863
  C      -11.049     -43.506     -31.868
  O      -10.118     -44.589     -31.736
  C      -11.628     -43.501     -33.270
  O      -10.645     -43.654     -34.282
  C      -12.617     -44.667     -33.158
  N      -13.609     -44.676     -34.231
  C      -13.184     -45.084     -35.491
  O      -12.033     -45.432     -35.750
  N      -14.123     -45.022     -36.485
  C      -15.386     -44.520     -36.368
  O      -16.140     -44.384     -37.325
  C      -15.780     -44.103     -35.014
  C      -14.890     -44.199     -34.023
  O      -15.751     -42.002     -32.169
  O      -15.348     -40.972     -29.856
  H      -11.112     -43.761     -35.130
  H      -16.654     -42.056     -31.804
  H      -13.836     -45.325     -37.402
  H      -16.783     -43.720     -34.880
  H      -15.147     -43.880     -33.019
  H      -12.075     -45.621     -33.156
  H      -12.148     -42.552     -33.446
  H      -10.573     -42.558     -31.602
  H      -11.997     -44.540     -30.205
  H      -13.810     -42.946     -29.794
  H      -12.257     -42.111     -29.692
  P       -8.558     -44.268     -31.945
  C       -6.698     -43.504     -30.277
  O       -8.065     -43.505     -30.628
  O       -8.638     -43.114     -33.054
  O       -7.753     -45.452     -32.372
  H       -9.338     -42.466     -32.869
  H       -6.055     -43.493     -31.161
  H       -6.477     -44.393     -29.682
  H       -6.487     -42.616     -29.677
  H      -14.608     -38.705     -33.834
  H      -15.356     -40.282     -33.924
  H      -13.636     -40.145     -33.649

 3  4  5  6  7  8  9  10  11  12  13  23  28  29  30  31  32 0
 6-311+G(2d,p)
 ****
 33  34 0
 6-311+G(2d,p)
 ****
 1  2  14  15  16  17  18  19  20  21  22  24  25  26 0
 3-21G
 ****
 27  35  36  37  38  39  40  41  42  43  44  45 0
 3-21G
 ****


