%nproc=1
%NoSave
%Mem=1900MB
#P OB98/GEN NMR

erre ene a

0 1
  C      956.720     759.602     -38.405
  O      956.968     759.970     -39.769
  P      955.824     759.730     -40.863
  C      957.306     758.938     -42.825
  O      956.468     759.974     -42.319
  C      957.971     759.367     -44.128
  O      957.003     759.611     -45.163
  C      958.745     760.680     -44.005
  O      959.974     760.456     -43.309
  C      958.892     761.089     -45.449
  O      960.004     760.390     -46.090
  C      957.569     760.603     -46.060
  N      956.620     761.685     -46.309
  C      956.995     762.612     -47.303
  O      958.084     762.494     -47.890
  N      956.134     763.645     -47.612
  C      955.005     763.745     -46.970
  N      954.197     764.781     -47.305
  C      954.589     762.795     -45.920
  C      955.441     761.804     -45.637
  O      954.531     760.434     -40.609
  O      955.631     758.132     -40.838
  H      959.921     759.448     -45.828
  H      954.705     757.928     -41.074
  H      953.625     762.921     -45.412
  H      955.203     761.074     -44.873
  H      957.739     760.083     -47.024
  H      959.088     762.151     -45.573
  H      958.141     761.427     -43.468
  H      958.634     758.568     -44.457
  H      954.515     765.415     -48.037
  H      956.718     758.039     -42.993
  H      953.275     764.919     -46.908
  H      958.052     758.690     -42.053
  P      960.240     761.344     -41.989
  C      962.782     761.340     -42.463
  O      961.766     761.092     -41.525
  O      959.386     760.563     -40.867
  O      959.818     762.783     -42.091
  H      959.021     761.206     -40.229
  H      963.728     761.437     -41.926
  H      962.611     762.260     -43.028
  H      962.858     760.500     -43.159
  H      957.582     759.828     -37.812
  H      956.515     758.553     -38.350
  H      955.879     760.150     -38.035

 3  4  5  6  7  8  9  10  11  12  13  23  27  28  29  30  32 0
 6-311+G(2d,p)
 ****
 34  35 0
 6-311+G(2d,p)
 ****
 1  2  14  15  16  17  18  19  20  21  22  24  25  26 0
 3-21G
 ****
 31  33  36  37  38  39  40  41  42  43  44  45  46 0
 3-21G
 ****


