%nproc=1
%NoSave
%Mem=1900MB
#P OB98/GEN NMR

erre ene a

0 1
  C      145.190    -178.485     -80.346
  O      145.187    -179.494     -81.343
  P      146.555    -180.103     -81.899
  C      145.134    -181.539     -83.573
  O      146.277    -180.746     -83.331
  C      144.919    -181.646     -85.090
  O      144.338    -180.429     -85.596
  C      146.233    -181.886     -85.830
  O      146.438    -183.272     -86.051
  C      146.045    -181.090     -87.107
  O      145.275    -181.844     -88.059
  C      145.234    -179.876     -86.600
  N      145.970    -178.754     -85.987
  C      146.527    -177.770     -86.798
  O      146.422    -177.751     -88.019
  N      147.245    -176.797     -86.143
  C      147.410    -176.701     -84.794
  O      148.243    -175.983     -84.248
  C      146.583    -177.600     -83.990
  C      145.929    -178.583     -84.610
  O      146.794    -181.376     -80.960
  O      147.724    -179.173     -81.887
  H      145.359    -181.395     -88.920
  H      147.427    -181.166     -80.249
  H      147.768    -176.159     -86.737
  H      146.572    -177.468     -82.915
  H      145.336    -179.287     -84.027
  H      144.617    -179.454     -87.400
  H      147.000    -180.883     -87.587
  H      147.071    -181.451     -85.265
  H      144.215    -182.464     -85.291
  H      144.260    -181.093     -83.096
  H      145.271    -182.536     -83.141
  P      147.655    -184.017     -85.329
  C      146.582    -186.183     -86.180
  O      147.776    -185.436     -86.064
  O      147.587    -184.070     -83.839
  O      148.938    -183.198     -85.835
  H      149.201    -182.542     -85.159
  H      146.759    -187.032     -86.849
  H      145.780    -185.564     -86.592
  H      146.290    -186.564     -85.196
  H      144.182    -178.213     -80.111
  H      145.716    -177.627     -80.709
  H      145.674    -178.854     -79.466

 3  4  5  6  7  8  9  10  11  12  13  23  28  29  30  31  32 0
 6-311+G(2d,p)
 ****
 33  34 0
 6-311+G(2d,p)
 ****
 1  2  14  15  16  17  18  19  20  21  22  24  25  26  27 0
 3-21G
 ****
 35  36  37  38  39  40  41  42  43  44  45 0
 3-21G
 ****


