%nproc=1
%NoSave
%Mem=1900MB
#P OB98/GEN NMR

erre ene a

0 1
  C       87.918     516.973     675.872
  O       87.553     517.994     674.964
  H       88.118     516.060     675.305
  H       87.103     516.779     676.577
  H       88.821     517.260     676.414
  P       87.180     519.419     675.598
  C       88.656     520.677     673.903
  O       87.333     520.453     674.379
  C       88.651     520.867     672.382
  O       88.689     519.562     671.750
  C       87.407     521.600     671.867
  O       87.785     522.472     670.794
  C       86.529     520.483     671.324
  O       85.634     520.932     670.315
  C       87.582     519.478     670.838
  N       85.147     516.040     667.947
  C       85.658     517.256     667.667
  N       86.307     518.103     668.497
  C       86.447     517.561     669.721
  C       85.971     516.334     670.152
  C       85.286     515.561     669.203
  N       84.737     514.326     669.494
  N       86.278     516.149     671.491
  C       86.929     517.241     671.851
  N       87.045     518.129     670.814
  O       87.914     519.788     676.845
  O       85.589     519.305     675.752
  H       86.147     521.459     669.665
  H       85.184     518.906     674.958
  H       85.526     517.601     666.643
  H       87.332     517.433     672.842
  H       87.936     519.706     669.828
  H       85.939     520.055     672.147
  H       86.903     522.171     672.651
  H       89.571     521.390     672.090
  H       89.299     519.825     674.157
  H       84.277     513.826     668.753
  H       84.850     513.944     670.418
  H       89.049     521.569     674.396
  P       86.745     523.605     670.337
  C       88.219     525.709     670.625
  O       87.575     524.829     669.702
  O       85.703     523.981     671.337
  O       86.076     522.943     669.032
  H       85.128     523.184     669.014
  H       88.734     526.476     670.086
  H       88.919     525.156     671.216
  H       87.486     526.154     671.265

 6  7  8  9  10  11  12  13  14  15  25  28  32  33  34  35 0
 6-311+G(2d,p)
 ****
 36  39  40 0
 6-311+G(2d,p)
 ****
 1  2  3  4  5  16  17  18  19  20  21  22  23  24 0
 3-21G
 ****
 26  27  29  30  31  37  38  41  42  43  44  45  46  47 0
 3-21G
 ****
 48 0
 3-21G
 ****


