%nproc=1
%NoSave
%Mem=1900MB
#P OB98/GEN NMR

erre ene a

0 1
  C      564.548     521.580    -353.792
  O      563.647     521.982    -352.781
  H      564.192     521.966    -354.750
  H      564.601     520.491    -353.851
  H      565.543     521.993    -353.599
  P      563.883     521.443    -351.289
  C      561.467     520.775    -350.655
  O      562.523     521.708    -350.482
  C      560.104     521.473    -350.583
  O      559.938     522.311    -351.761
  C      558.911     520.506    -350.542
  O      557.863     521.146    -349.801
  C      558.547     520.413    -352.011
  O      557.281     519.835    -352.198
  C      558.736     521.869    -352.434
  N      558.827     522.027    -353.877
  C      557.631     522.305    -354.548
  O      556.576     522.393    -353.920
  N      557.656     522.444    -355.910
  C      558.766     522.258    -356.555
  N      558.719     522.398    -357.906
  C      560.041     521.904    -355.894
  C      560.000     521.813    -354.564
  O      565.118     521.933    -350.612
  O      563.901     519.847    -351.455
  H      556.612     520.261    -351.616
  H      564.819     519.523    -351.388
  H      560.931     521.741    -356.477
  H      560.884     521.557    -353.988
  H      557.908     522.494    -352.065
  H      559.262     519.770    -352.541
  H      559.158     519.540    -350.088
  H      560.099     522.145    -349.713
  H      557.824     522.627    -358.323
  H      561.550     520.032    -349.858
  H      559.513     522.255    -358.517
  H      561.563     520.266    -351.622
  P      557.210     520.510    -348.480
  C      554.743     520.305    -349.204
  O      555.679     520.974    -348.368
  O      558.006     520.742    -347.237
  O      557.101     518.940    -348.788
  H      557.191     518.448    -347.951
  H      553.765     520.704    -349.035
  H      554.746     519.259    -348.977
  H      555.014     520.448    -350.229

 6  7  8  9  10  11  12  13  14  15  16  26  30  31  32  33  35 0
 6-311+G(2d,p)
 ****
 37  38 0
 6-311+G(2d,p)
 ****
 1  2  3  4  5  17  18  19  20  21  22  23  24  25 0
 3-21G
 ****
 27  28  29  34  36  39  40  41  42  43  44  45  46 0
 3-21G
 ****


