%nproc=1
%NoSave
%Mem=1900MB
#P OB98/GEN NMR

erre ene a

0 1
  C     -419.182    -178.658      33.608
  O     -418.704    -177.354      33.305
  P     -417.122    -177.095      33.324
  C     -416.967    -174.971      34.911
  O     -416.716    -176.343      34.674
  C     -416.395    -174.580      36.285
  O     -416.911    -175.459      37.306
  C     -414.870    -174.656      36.345
  O     -414.257    -173.458      35.895
  C     -414.633    -174.939      37.821
  O     -414.774    -173.734      38.589
  C     -415.796    -175.919      38.125
  N     -415.579    -177.362      37.859
  C     -415.629    -178.279      38.905
  O     -415.841    -177.972      40.086
  N     -415.433    -179.590      38.571
  C     -415.370    -180.103      37.306
  O     -415.250    -181.299      37.061
  C     -415.468    -179.117      36.227
  C     -415.556    -177.812      36.544
  O     -416.903    -175.990      32.193
  O     -416.299    -178.318      33.082
  H     -415.712    -173.471      38.548
  H     -416.366    -176.348      31.459
  H     -415.399    -180.258      39.326
  H     -415.465    -179.479      35.204
  H     -415.629    -177.074      35.755
  H     -416.102    -175.837      39.174
  H     -413.622    -175.291      37.992
  H     -414.513    -175.524      35.773
  H     -416.728    -173.552      36.513
  H     -418.037    -174.763      34.878
  H     -416.504    -174.368      34.121
  P     -413.934    -173.265      34.334
  C     -411.549    -172.385      34.683
  O     -412.348    -173.445      34.201
  O     -414.505    -172.046      33.694
  O     -414.494    -174.613      33.669
  H     -415.409    -174.472      33.313
  H     -410.498    -172.700      34.674
  H     -411.840    -172.123      35.710
  H     -411.664    -171.510      34.037
  H     -420.251    -178.668      33.554
  H     -418.873    -178.931      34.595
  H     -418.783    -179.357      32.903

 3  4  5  6  7  8  9  10  11  12  13  23  28  29  30  31  32 0
 6-311+G(2d,p)
 ****
 33  34 0
 6-311+G(2d,p)
 ****
 1  2  14  15  16  17  18  19  20  21  22  24  25  26  27 0
 3-21G
 ****
 35  36  37  38  39  40  41  42  43  44  45 0
 3-21G
 ****


