%nproc=1
%NoSave
%Mem=1900MB
#P OB98/GEN NMR

erre ene a

0 1
  C      -50.227     478.418    -193.657
  O      -50.664     477.445    -194.580
  P      -49.651     476.361    -195.180
  C      -49.576     477.301    -197.568
  O      -49.954     476.206    -196.753
  C      -49.894     477.032    -199.036
  O      -49.043     475.972    -199.530
  C      -51.349     476.631    -199.309
  O      -51.743     477.245    -200.536
  C      -51.267     475.128    -199.461
  O      -52.368     474.600    -200.187
  C      -49.900     474.990    -200.143
  N      -49.352     473.649    -200.009
  C      -49.599     472.765    -201.065
  O      -50.356     473.079    -201.980
  N      -48.984     471.527    -201.040
  C      -48.337     471.156    -199.974
  N      -47.690     469.955    -200.024
  C      -48.276     471.976    -198.749
  C      -48.757     473.208    -198.848
  O      -49.590     475.065    -194.433
  O      -48.225     477.095    -195.160
  H      -47.577     476.531    -194.693
  H      -52.236     473.630    -200.295
  H      -47.838     471.573    -197.843
  H      -48.723     473.899    -198.014
  H      -49.973     475.239    -201.207
  H      -51.251     474.654    -198.471
  H      -52.031     476.957    -198.515
  H      -49.641     477.945    -199.608
  H      -47.732     469.437    -200.889
  H      -48.497     477.459    -197.450
  H      -46.928     469.733    -199.382
  H      -50.073     478.216    -197.219
  P      -52.649     478.574    -200.478
  C      -54.660     477.990    -202.014
  O      -53.439     478.686    -201.871
  O      -51.544     479.734    -200.628
  O      -53.434     478.787    -199.225
  H      -51.885     480.553    -200.224
  H      -55.020     478.122    -203.037
  H      -55.414     478.380    -201.324
  H      -54.514     476.917    -201.839
  H      -51.051     479.042    -193.380
  H      -49.461     479.016    -194.105
  H      -49.838     477.934    -192.786

 3  4  5  6  7  8  9  10  11  12  13  24  27  28  29  30  32 0
 6-311+G(2d,p)
 ****
 34  35 0
 6-311+G(2d,p)
 ****
 1  2  14  15  16  17  18  19  20  21  22  23  25  26 0
 3-21G
 ****
 31  33  36  37  38  39  40  41  42  43  44  45  46 0
 3-21G
 ****


