%nproc=1
%NoSave
%Mem=1900MB
#P OB98/GEN NMR

erre ene a

0 1
  C     -112.778     200.141      32.930
  O     -111.964     199.111      32.406
  H     -112.142     200.859      33.454
  H     -113.496     199.722      33.641
  H     -113.307     200.657      32.124
  P     -112.681     198.042      31.445
  C     -113.386     196.389      33.359
  O     -112.590     196.638      32.215
  C     -112.958     195.087      34.039
  O     -113.194     193.986      33.126
  C     -111.481     195.057      34.436
  O     -111.355     194.330      35.660
  C     -110.833     194.264      33.313
  O     -109.601     193.673      33.713
  C     -111.953     193.269      32.966
  N     -111.816     192.726      31.616
  C     -111.316     191.424      31.511
  O     -111.002     190.796      32.524
  N     -111.143     190.876      30.266
  C     -111.384     191.590      29.211
  N     -111.168     191.000      28.005
  C     -111.870     192.982      29.273
  C     -112.071     193.478      30.493
  O     -111.613     197.897      30.262
  O     -114.049     198.436      30.997
  H     -109.366     192.970      33.068
  H     -110.697     197.819      30.575
  H     -112.047     193.541      28.365
  H     -112.434     194.489      30.632
  H     -111.957     192.432      33.674
  H     -110.630     194.919      32.459
  H     -111.054     196.055      34.552
  H     -113.603     194.921      34.910
  H     -110.813     190.051      28.009
  H     -114.442     196.322      33.081
  H     -111.269     191.476      27.122
  H     -113.267     197.233      34.045
  P     -111.345     195.122      37.050
  C     -108.805     195.608      36.961
  O     -109.881     195.038      37.697
  O     -112.472     194.817      37.978
  O     -111.419     196.659      36.577
  H     -112.024     197.128      37.183
  H     -107.893     195.481      37.506
  H     -108.989     196.651      36.811
  H     -108.724     195.120      36.012

 6  7  8  9  10  11  12  13  14  15  16  26  30  31  32  33  35 0
 6-311+G(2d,p)
 ****
 37  38 0
 6-311+G(2d,p)
 ****
 1  2  3  4  5  17  18  19  20  21  22  23  24  25 0
 3-21G
 ****
 27  28  29  34  36  39  40  41  42  43  44  45  46 0
 3-21G
 ****


