%nproc=1
%NoSave
%Mem=1900MB
#P OB98/GEN NMR

erre ene a

0 1
  C      352.096     770.180    -623.892
  O      350.881     770.789    -623.511
  H      351.960     769.709    -624.869
  H      352.383     769.412    -623.171
  H      352.889     770.931    -623.974
  P      350.787     771.500    -622.078
  C      350.898     773.883    -623.064
  O      351.522     772.921    -622.220
  C      351.846     775.067    -623.305
  O      352.922     774.595    -624.158
  C      351.154     776.241    -624.012
  O      351.316     777.480    -623.323
  C      351.668     776.149    -625.440
  O      351.674     777.376    -626.146
  C      353.050     775.506    -625.267
  N      353.528     774.804    -626.458
  C      354.188     775.560    -627.422
  O      354.423     776.766    -627.344
  N      354.607     774.871    -628.532
  C      354.429     773.539    -628.762
  O      354.831     772.974    -629.774
  C      353.705     772.801    -627.721
  C      353.293     773.460    -626.628
  O      351.239     770.675    -620.919
  O      349.244     771.904    -621.943
  H      352.064     777.212    -627.025
  H      348.793     771.271    -621.356
  H      355.098     775.407    -629.234
  H      353.531     771.744    -627.875
  H      352.757     772.941    -625.837
  H      353.792     776.264    -625.007
  H      351.019     775.459    -625.996
  H      350.061     776.102    -624.018
  H      352.284     775.369    -622.350
  H      349.985     774.225    -622.565
  H      350.635     773.419    -624.020
  P      350.136     778.285    -622.612
  C      351.206     778.175    -620.218
  O      350.108     777.865    -621.071
  O      348.831     778.300    -623.334
  O      350.694     779.804    -622.585
  H      349.914     780.383    -622.667
  H      351.003     777.816    -619.231
  H      351.347     779.235    -620.190
  H      352.092     777.707    -620.593

 6  7  8  9  10  11  12  13  14  15  16  26  31  32  33  34  35 0
 6-311+G(2d,p)
 ****
 36  37 0
 6-311+G(2d,p)
 ****
 1  2  3  4  5  17  18  19  20  21  22  23  24  25 0
 3-21G
 ****
 27  28  29  30  38  39  40  41  42  43  44  45 0
 3-21G
 ****


