%nproc=1
%NoSave
%Mem=1900MB
#P OB98/GEN NMR

erre ene a

0 1
  C     -303.839      35.748     -18.902
  O     -304.186      37.075     -19.222
  P     -305.678      37.562     -19.503
  C     -305.454      38.028     -22.069
  O     -306.038      37.241     -21.036
  C     -306.432      38.219     -23.239
  O     -306.431      37.010     -24.044
  C     -307.874      38.421     -22.734
  O     -308.599      39.424     -23.434
  C     -308.441      37.004     -22.755
  O     -309.862      36.965     -22.771
  C     -307.738      36.411     -23.973
  N     -308.762      32.009     -26.311
  C     -308.883      33.301     -26.795
  N     -309.514      33.434     -27.976
  N     -308.444      34.352     -26.152
  C     -307.931      34.073     -24.935
  C     -307.763      32.836     -24.349
  C     -308.220      31.679     -25.076
  O     -308.248      30.527     -24.641
  N     -307.269      32.942     -23.069
  C     -307.180      34.239     -22.867
  N     -307.592      34.967     -23.955
  O     -306.069      38.892     -18.957
  O     -306.543      36.441     -18.721
  H     -310.157      37.392     -23.595
  H     -307.342      36.884     -18.374
  H     -309.192      31.240     -26.820
  H     -306.839      34.705     -21.947
  H     -308.275      36.647     -24.896
  H     -308.124      36.512     -21.836
  H     -309.991      32.660     -28.423
  H     -307.876      38.788     -21.705
  H     -309.830      34.365     -28.229
  H     -306.085      39.046     -23.865
  H     -304.565      37.481     -22.414
  H     -305.119      38.994     -21.678
  P     -309.460      40.636     -22.851
  C     -311.639      39.271     -22.884
  O     -310.739      40.040     -22.100
  O     -310.101      41.341     -24.132
  O     -308.681      41.627     -22.052
  H     -310.089      42.319     -24.005
  H     -312.573      39.155     -22.344
  H     -311.204      38.278     -23.059
  H     -311.831      39.759     -23.842
  H     -302.781      35.680     -18.761
  H     -304.135      35.100     -19.700
  H     -304.338      35.456     -18.002

 3  4  5  6  7  8  9  10  11  12  23  26  30  31 0
 6-311+G(2d,p)
 ****
 33  35  36  37  38 0
 6-311+G(2d,p)
 ****
 1  2  13  14  15  16  17  18  19  20  21  22  24  25 0
 3-21G
 ****
 27  28  29  32  34  39  40  41  42  43  44  45  46  47  48  49 0
 3-21G
 ****


