%nproc=1
%NoSave
%Mem=1900MB
#P OB98/GEN NMR

erre ene a

0 1
  C     -200.669     411.399     250.549
  O     -201.432     410.550     249.714
  H     -201.341     412.103     251.043
  H     -199.959     411.963     249.937
  H     -200.133     410.824     251.310
  P     -200.730     409.202     249.200
  C     -200.356     410.273     246.862
  O     -199.768     409.622     247.979
  C     -199.337     411.180     246.178
  O     -198.064     410.471     246.089
  C     -199.731     411.608     244.754
  O     -199.293     412.958     244.536
  C     -198.890     410.691     243.882
  O     -198.677     411.226     242.581
  C     -197.620     410.585     244.726
  N     -194.500     409.003     241.124
  C     -195.018     410.259     241.377
  N     -194.709     411.238     240.500
  N     -195.780     410.532     242.400
  C     -196.000     409.466     243.209
  C     -195.550     408.175     243.072
  C     -194.721     407.880     241.920
  O     -194.248     406.784     241.634
  N     -196.045     407.373     244.071
  C     -196.803     408.175     244.799
  N     -196.809     409.453     244.317
  O     -201.936     408.432     248.481
  O     -200.090     408.368     250.261
  H     -198.111     410.604     242.084
  H     -202.343     407.801     249.105
  H     -193.931     408.842     240.314
  H     -197.379     407.874     245.664
  H     -196.986     411.478     244.645
  H     -199.380     409.715     243.783
  H     -194.103     411.112     239.707
  H     -200.802     411.530     244.543
  H     -195.049     412.174     240.694
  H     -199.167     412.062     246.812
  H     -201.202     410.880     247.205
  H     -200.729     409.519     246.160
  P     -200.295     414.146     244.920
  C     -201.091     414.877     242.553
  O     -201.423     414.253     243.788
  O     -199.409     415.460     244.687
  O     -200.807     414.077     246.327
  H     -199.649     416.142     245.344
  H     -201.945     414.869     241.908
  H     -200.288     414.343     242.088
  H     -200.790     415.888     242.734

 6  7  8  9  10  11  12  13  14  15  26  29  33  34 0
 6-311+G(2d,p)
 ****
 36  38  39  40  41 0
 6-311+G(2d,p)
 ****
 1  2  3  4  5  16  17  18  19  20  21  22  23  24  25 0
 3-21G
 ****
 27  28  30  31  32  35  37  42  43  44  45  46  47 0
 3-21G
 ****
 48  49 0
 3-21G
 ****


