%nproc=1
%NoSave
%Mem=1900MB
#P OB98/GEN NMR

erre ene a

0 1
  C      -93.413      89.730    -152.014
  O      -93.784      90.299    -153.254
  H      -92.441      90.137    -151.720
  H      -93.321      88.643    -152.108
  H      -94.145      89.974    -151.239
  P      -95.246      89.985    -153.843
  C      -96.494      87.827    -154.518
  O      -95.233      88.459    -154.340
  C      -96.357      86.664    -155.505
  O      -96.199      87.168    -156.850
  C      -95.144      85.780    -155.248
  O      -95.361      84.918    -154.149
  C      -95.008      85.079    -156.592
  O      -95.932      83.985    -156.693
  C      -95.386      86.217    -157.573
  N      -94.217      86.864    -158.171
  C      -93.388      86.054    -158.946
  O      -93.582      84.847    -159.110
  N      -92.302      86.677    -159.505
  C      -91.910      87.964    -159.277
  O      -90.879      88.449    -159.733
  C      -92.808      88.766    -158.431
  C      -93.904      88.187    -157.925
  O      -95.769      90.967    -154.835
  O      -96.172      89.924    -152.536
  H      -95.602      83.293    -156.091
  H      -96.705      90.739    -152.479
  H      -91.684      86.106    -160.061
  H      -92.538      89.795    -158.239
  H      -94.576      88.760    -157.295
  H      -96.015      85.822    -158.384
  H      -94.009      84.675    -156.750
  H      -94.252      86.402    -155.082
  H      -97.288      86.076    -155.472
  H      -97.205      88.562    -154.920
  H      -96.857      87.473    -153.549
  P      -94.118      84.401    -153.280
  C      -92.219      82.677    -153.511
  O      -93.385      83.243    -154.115
  O      -94.432      84.052    -151.858
  O      -93.074      85.613    -153.345
  H      -92.901      85.946    -152.443
  H      -91.817      81.921    -154.152
  H      -92.480      82.243    -152.568
  H      -91.488      83.443    -153.361

 6  7  8  9  10  11  12  13  14  15  16  26  31  32  33  34  35 0
 6-311+G(2d,p)
 ****
 36  37 0
 6-311+G(2d,p)
 ****
 1  2  3  4  5  17  18  19  20  21  22  23  24  25 0
 3-21G
 ****
 27  28  29  30  38  39  40  41  42  43  44  45 0
 3-21G
 ****


