%nproc=1
%NoSave
%Mem=1900MB
#P OB98/GEN NMR

erre ene a

0 1
  C      -80.014     174.320      82.437
  O      -80.437     175.104      81.318
  P      -81.903     175.755      81.385
  C      -81.681     177.414      83.402
  O      -81.694     177.223      81.994
  C      -82.594     178.578      83.781
  O      -82.858     178.577      85.205
  C      -82.012     179.949      83.477
  O      -82.053     180.234      82.088
  C      -82.900     180.836      84.340
  O      -84.151     181.085      83.680
  C      -83.127     179.949      85.582
  N      -82.325     180.353      86.729
  C      -82.822     181.422      87.469
  O      -83.857     182.018      87.177
  N      -82.073     181.799      88.550
  C      -80.889     181.243      88.937
  O      -80.267     181.616      89.923
  C      -80.389     180.151      88.088
  C      -81.118     179.762      87.038
  O      -82.557     174.918      82.578
  O      -82.631     175.686      80.086
  H      -81.920     174.687      83.275
  H      -84.670     181.658      84.280
  H      -82.423     182.563      89.107
  H      -79.439     179.704      88.350
  H      -80.763     178.959      86.398
  H      -84.183     179.979      85.879
  H      -82.443     181.808      84.551
  H      -80.977     180.002      83.834
  H      -83.548     178.446      83.253
  H      -80.663     177.630      83.739
  H      -81.999     176.486      83.887
  P      -80.863     181.137      81.497
  C      -78.681     180.060      82.452
  O      -79.584     180.180      81.376
  O      -80.531     182.073      82.753
  O      -81.233     181.880      80.255
  H      -80.496     181.584      83.591
  H      -78.105     179.140      82.327
  H      -79.204     180.018      83.412
  H      -77.992     180.909      82.448
  H      -79.026     173.950      82.260
  H      -80.685     173.497      82.570
  H      -80.015     174.927      83.318

 3  4  5  6  7  8  9  10  11  12  13  24  28  29  30  31  32 0
 6-311+G(2d,p)
 ****
 33  34 0
 6-311+G(2d,p)
 ****
 1  2  14  15  16  17  18  19  20  21  22  23  25  26  27 0
 3-21G
 ****
 35  36  37  38  39  40  41  42  43  44  45 0
 3-21G
 ****


