%nproc=1
%NoSave
%Mem=1900MB
#P OB98/GEN NMR

erre ene a

0 1
  C     -267.210     371.921    -162.994
  O     -267.893     372.755    -162.077
  H     -266.586     371.220    -162.432
  H     -266.566     372.522    -163.643
  H     -267.925     371.354    -163.594
  P     -268.886     373.844    -162.708
  C     -268.511     376.106    -163.914
  O     -267.911     374.983    -163.283
  C     -267.476     377.208    -164.138
  O     -266.940     377.664    -162.879
  C     -266.270     376.780    -164.966
  O     -266.576     376.808    -166.350
  C     -265.269     377.858    -164.584
  O     -265.541     379.061    -165.333
  C     -265.568     378.089    -163.095
  N     -260.796     377.595    -161.270
  C     -261.289     378.297    -162.313
  N     -262.559     378.348    -162.764
  C     -263.367     377.569    -162.023
  C     -263.001     376.795    -160.928
  C     -261.653     376.834    -160.547
  N     -261.154     376.126    -159.475
  N     -264.097     376.129    -160.415
  C     -265.110     376.536    -161.155
  N     -264.713     377.378    -162.162
  O     -269.988     374.308    -161.815
  O     -269.359     373.093    -164.039
  H     -266.423     379.381    -165.069
  H     -268.618     372.604    -164.438
  H     -260.569     378.900    -162.855
  H     -266.146     376.260    -160.993
  H     -265.509     379.152    -162.827
  H     -264.240     377.569    -164.817
  H     -265.890     375.807    -164.641
  H     -267.987     378.059    -164.605
  H     -269.336     376.488    -163.306
  H     -260.151     376.071    -159.380
  H     -261.763     375.466    -159.019
  H     -268.913     375.768    -164.874
  P     -266.200     375.565    -167.296
  C     -264.563     375.197    -169.246
  O     -264.884     375.996    -168.110
  O     -267.316     375.057    -168.142
  O     -265.655     374.449    -166.291
  H     -265.952     373.561    -166.578
  H     -263.674     375.574    -169.707
  H     -265.371     375.232    -169.947
  H     -264.403     374.185    -168.937

 6  7  8  9  10  11  12  13  14  15  25  28  32  33  34  35 0
 6-311+G(2d,p)
 ****
 36  39  40 0
 6-311+G(2d,p)
 ****
 1  2  3  4  5  16  17  18  19  20  21  22  23  24 0
 3-21G
 ****
 26  27  29  30  31  37  38  41  42  43  44  45  46  47 0
 3-21G
 ****
 48 0
 3-21G
 ****


