%nproc=1
%NoSave
%Mem=1900MB
#P OB98/GEN NMR

erre ene a

0 1
  C       19.358    -395.350    -173.760
  O       20.741    -395.207    -173.409
  P       21.324    -396.148    -172.252
  C       23.178    -397.978    -172.225
  O       22.122    -397.357    -172.946
  C       24.210    -398.562    -173.195
  O       23.628    -399.576    -174.047
  C       24.823    -397.532    -174.133
  O       25.890    -396.824    -173.515
  C       25.369    -398.429    -175.237
  O       26.626    -399.000    -174.824
  C       24.291    -399.515    -175.336
  N       23.037    -400.382    -180.161
  C       24.112    -400.838    -179.427
  N       24.983    -401.652    -180.071
  N       24.320    -400.527    -178.173
  C       23.365    -399.723    -177.659
  C       22.250    -399.203    -178.282
  C       22.039    -399.546    -179.673
  O       21.108    -399.161    -180.379
  N       21.514    -398.422    -177.432
  C       22.167    -398.479    -176.286
  N       23.305    -399.242    -176.373
  O       20.010    -396.872    -171.685
  O       22.062    -395.417    -171.176
  H       26.456    -399.471    -173.982
  H       20.143    -397.113    -170.749
  H       22.926    -400.652    -181.128
  H       21.854    -397.991    -175.369
  H       24.712    -400.506    -175.542
  H       25.559    -397.876    -176.163
  H       24.858    -401.972    -181.016
  H       24.057    -396.857    -174.537
  H       25.760    -402.018    -179.536
  H       25.010    -399.026    -172.600
  H       22.785    -398.768    -171.580
  H       23.628    -397.240    -171.554
  P       25.867    -395.218    -173.590
  C       24.590    -393.352    -172.315
  O       24.804    -394.738    -172.494
  O       25.136    -394.941    -174.987
  O       27.210    -394.575    -173.531
  H       25.476    -394.114    -175.386
  H       23.726    -393.215    -171.653
  H       24.382    -392.862    -173.271
  H       25.467    -392.890    -171.849
  H       19.115    -394.661    -174.542
  H       18.750    -395.147    -172.903
  H       19.177    -396.349    -174.097

 3  4  5  6  7  8  9  10  11  12  23  26  30  31 0
 6-311+G(2d,p)
 ****
 33  35  36  37  38 0
 6-311+G(2d,p)
 ****
 1  2  13  14  15  16  17  18  19  20  21  22  24  25 0
 3-21G
 ****
 27  28  29  32  34  39  40  41  42  43  44  45  46  47  48  49 0
 3-21G
 ****


