%nproc=1
%NoSave
%Mem=1900MB
#P OB98/GEN NMR

erre ene a

0 1
  C       19.842      36.443     131.811
  O       20.520      35.822     130.733
  P       20.125      34.346     130.231
  C       21.693      33.204     131.944
  O       20.360      33.390     131.498
  C       21.759      32.061     132.961
  O       20.898      32.389     134.083
  C       21.306      30.701     132.410
  O       22.112      29.697     133.046
  C       19.868      30.606     132.884
  O       19.392      29.269     132.932
  C       19.963      31.301     134.247
  N       18.672      31.785     134.721
  C       18.289      31.445     136.020
  O       19.006      30.740     136.730
  N       17.088      31.911     136.496
  C       16.301      32.585     135.715
  N       15.148      33.078     136.249
  C       16.618      32.873     134.302
  C       17.815      32.468     133.887
  O       20.808      33.906     128.984
  O       18.531      34.377     130.130
  H       19.332      28.932     132.018
  H       18.204      34.733     129.266
  H       15.918      33.414     133.683
  H       18.145      32.655     132.876
  H       20.400      30.622     134.988
  H       19.222      31.168     132.199
  H       21.421      30.623     131.327
  H       22.785      31.998     133.341
  H       15.049      33.009     137.257
  H       22.027      34.125     132.428
  H       14.665      33.859     135.820
  H       22.344      33.008     131.087
  P       22.631      28.465     132.158
  C       20.626      26.823     132.297
  O       21.353      27.745     131.513
  O       23.069      27.413     133.291
  O       23.783      28.741     131.248
  H       23.749      26.815     132.925
  H       19.790      26.440     131.701
  H       20.221      27.312     133.187
  H       21.262      25.984     132.589
  H       20.257      37.414     131.982
  H       19.953      35.847     132.693
  H       18.803      36.536     131.573

 3  4  5  6  7  8  9  10  11  12  13  23  27  28  29  30  32 0
 6-311+G(2d,p)
 ****
 34  35 0
 6-311+G(2d,p)
 ****
 1  2  14  15  16  17  18  19  20  21  22  24  25  26 0
 3-21G
 ****
 31  33  36  37  38  39  40  41  42  43  44  45  46 0
 3-21G
 ****


