%nproc=1
%NoSave
%Mem=1900MB
#P OB98/GEN NMR

erre ene a

0 1
  C      122.636     -79.662     100.552
  O      123.878     -80.067     100.015
  H      122.494     -78.598     100.343
  H      122.628     -79.808     101.634
  H      121.812     -80.220     100.097
  P      124.243     -81.628     100.004
  C      125.133     -81.535     102.422
  O      125.429     -81.835     101.064
  C      126.159     -80.545     102.970
  O      125.870     -80.245     104.353
  C      127.594     -81.061     102.947
  O      128.126     -81.015     101.638
  C      128.250     -80.114     103.942
  O      128.553     -78.854     103.325
  C      127.132     -79.956     105.001
  N      127.323     -80.808     106.174
  C      127.717     -80.168     107.345
  O      127.940     -78.960     107.407
  N      127.869     -80.973     108.443
  C      127.748     -82.335     108.462
  O      127.947     -83.016     109.464
  C      127.365     -82.959     107.186
  C      127.172     -82.181     106.121
  O      124.493     -82.228      98.660
  O      122.990     -82.311     100.730
  H      129.048     -79.054     102.507
  H      122.390     -82.695     100.063
  H      128.166     -80.531     109.297
  H      127.265     -84.036     107.163
  H      126.893     -82.623     105.171
  H      127.077     -78.915     105.342
  H      129.188     -80.504     104.338
  H      127.637     -82.080     103.351
  H      126.071     -79.611     102.398
  H      125.173     -82.462     103.004
  H      124.122     -81.119     102.482
  P      128.790     -82.314     100.977
  C      130.413     -82.813     102.896
  O      130.294     -82.425     101.533
  O      128.664     -82.407      99.493
  O      128.048     -83.536     101.696
  H      127.412     -83.948     101.079
  H      131.448     -82.857     103.165
  H      129.968     -83.776     103.033
  H      129.913     -82.098     103.515

 6  7  8  9  10  11  12  13  14  15  16  26  31  32  33  34  35 0
 6-311+G(2d,p)
 ****
 36  37 0
 6-311+G(2d,p)
 ****
 1  2  3  4  5  17  18  19  20  21  22  23  24  25 0
 3-21G
 ****
 27  28  29  30  38  39  40  41  42  43  44  45 0
 3-21G
 ****


