%nproc=1
%NoSave
%Mem=1900MB
#P OB98/GEN NMR

erre ene a

0 1
  C      -90.096     -52.487     -98.926
  O      -91.407     -52.416     -98.408
  H      -89.428     -51.935     -98.261
  H      -90.064     -52.026     -99.918
  H      -89.751     -53.521     -98.989
  P      -92.525     -53.397     -98.999
  C      -94.099     -53.395    -101.045
  O      -93.218     -52.636    -100.231
  C      -94.210     -52.780    -102.447
  O      -94.953     -51.537    -102.358
  C      -92.829     -52.435    -103.019
  O      -92.812     -52.476    -104.443
  C      -92.628     -50.998    -102.564
  O      -91.689     -50.282    -103.367
  C      -94.053     -50.452    -102.643
  N      -93.886     -45.412    -101.889
  C      -93.349     -46.160    -102.920
  N      -92.681     -45.469    -103.876
  N      -93.436     -47.461    -102.994
  C      -94.068     -48.022    -101.934
  C      -94.623     -47.391    -100.843
  C      -94.548     -45.945    -100.790
  O      -94.988     -45.237     -99.889
  N      -95.169     -48.293     -99.964
  C      -94.942     -49.467    -100.517
  N      -94.300     -49.354    -101.727
  O      -93.678     -53.369     -97.885
  O      -92.072     -54.796     -99.286
  H      -91.544     -49.415    -102.943
  H      -94.235     -54.166     -97.953
  H      -93.815     -44.410    -101.896
  H      -95.236     -50.422    -100.098
  H      -94.272     -50.092    -103.656
  H      -92.233     -51.013    -101.544
  H      -92.425     -44.503    -103.752
  H      -92.042     -53.080    -102.636
  H      -92.029     -46.011    -104.452
  H      -94.781     -53.444    -103.105
  H      -95.072     -53.396    -100.549
  H      -93.765     -54.432    -101.104
  P      -92.850     -53.904    -105.169
  C      -91.089     -55.789    -105.767
  O      -91.407     -54.586    -105.102
  O      -93.030     -53.541    -106.715
  O      -93.931     -54.818    -104.677
  H      -93.889     -53.869    -107.042
  H      -90.068     -56.045    -105.573
  H      -91.231     -55.663    -106.820
  H      -91.726     -56.572    -105.412

 6  7  8  9  10  11  12  13  14  15  26  29  33  34 0
 6-311+G(2d,p)
 ****
 36  38  39  40  41 0
 6-311+G(2d,p)
 ****
 1  2  3  4  5  16  17  18  19  20  21  22  23  24  25 0
 3-21G
 ****
 27  28  30  31  32  35  37  42  43  44  45  46  47 0
 3-21G
 ****
 48  49 0
 3-21G
 ****


