%nproc=1
%NoSave
%Mem=1900MB
#P OB98/GEN NMR

erre ene a

0 1
  C     -373.461    -133.868    -601.791
  O     -374.079    -135.118    -602.035
  P     -375.121    -135.681    -600.956
  C     -377.138    -134.573    -602.226
  O     -376.410    -134.722    -601.023
  C     -378.639    -134.734    -601.963
  O     -378.890    -136.083    -601.474
  C     -379.210    -133.757    -600.925
  O     -380.542    -133.433    -601.337
  C     -379.235    -134.593    -599.653
  O     -380.151    -134.100    -598.693
  C     -379.595    -135.969    -600.224
  N     -379.247    -137.078    -599.338
  C     -379.912    -137.164    -598.117
  O     -380.751    -136.352    -597.728
  N     -379.547    -138.217    -597.314
  C     -378.566    -139.131    -597.581
  O     -378.271    -140.047    -596.821
  C     -377.869    -138.959    -598.865
  C     -378.243    -137.967    -599.672
  O     -374.401    -135.272    -599.586
  O     -375.416    -137.135    -601.106
  H     -373.934    -134.422    -599.645
  H     -379.878    -133.195    -598.449
  H     -380.037    -138.322    -596.443
  H     -377.075    -139.657    -599.107
  H     -377.745    -137.822    -600.625
  H     -380.667    -136.011    -600.459
  H     -378.235    -134.598    -599.206
  H     -378.614    -132.850    -600.837
  H     -379.169    -134.632    -602.920
  H     -376.818    -135.337    -602.944
  H     -376.921    -133.593    -602.661
  P     -381.165    -132.025    -600.852
  C     -381.820    -130.939    -603.140
  O     -380.941    -130.975    -602.038
  O     -380.061    -131.588    -599.772
  O     -382.539    -132.111    -600.273
  H     -379.154    -131.668    -600.106
  H     -381.711    -129.974    -603.641
  H     -382.858    -131.055    -602.827
  H     -381.556    -131.736    -603.848
  H     -372.798    -133.634    -602.598
  H     -372.907    -133.916    -600.877
  H     -374.211    -133.108    -601.714

 3  4  5  6  7  8  9  10  11  12  13  24  28  29  30  31  32 0
 6-311+G(2d,p)
 ****
 33  34 0
 6-311+G(2d,p)
 ****
 1  2  14  15  16  17  18  19  20  21  22  23  25  26  27 0
 3-21G
 ****
 35  36  37  38  39  40  41  42  43  44  45 0
 3-21G
 ****


