%nproc=1
%NoSave
%Mem=1900MB
#P OB98/GEN NMR

erre ene a

0 1
  C      485.432     212.345    -112.625
  O      484.533     213.465    -112.691
  P      484.932     214.753    -111.813
  C      483.405     214.331    -109.758
  O      483.669     215.142    -110.896
  C      481.940     214.439    -109.308
  O      481.634     215.824    -109.012
  C      480.920     213.957    -110.346
  O      479.839     213.310    -109.651
  C      480.370     215.256    -110.921
  O      479.079     215.088    -111.502
  C      480.399     216.145    -109.685
  N      477.453     219.944    -111.253
  C      477.108     218.646    -110.922
  N      475.811     218.310    -111.050
  N      477.982     217.755    -110.502
  C      479.238     218.250    -110.389
  C      479.691     219.514    -110.679
  C      478.731     220.471    -111.180
  O      478.974     221.624    -111.544
  N      481.041     219.630    -110.441
  C      481.408     218.432    -110.014
  N      480.352     217.559    -109.975
  O      484.993     215.932    -112.910
  O      486.234     214.613    -111.098
  H      478.446     214.962    -110.766
  H      485.875     216.358    -112.883
  H      476.740     220.575    -111.588
  H      482.417     218.136    -109.753
  H      479.572     215.904    -108.999
  H      481.048     215.617    -111.700
  H      475.079     218.952    -111.300
  H      481.321     213.285    -111.118
  H      475.538     217.365    -110.767
  H      481.834     213.872    -108.374
  H      484.054     214.643    -108.936
  H      483.652     213.292    -110.006
  P      479.550     211.776    -110.056
  C      477.690     212.387    -111.774
  O      478.025     211.738    -110.564
  O      479.499     211.032    -108.646
  O      480.564     211.187    -110.982
  H      479.752     210.093    -108.749
  H      478.562     212.703    -112.341
  H      477.090     213.276    -111.535
  H      477.093     211.707    -112.381
  H      485.064     211.555    -113.246
  H      485.500     212.002    -111.614
  H      486.401     212.645    -112.966

 3  4  5  6  7  8  9  10  11  12  23  26  30  31  33  0
 6-311+G(2d,p)
 ****
 35  36  37  38 0
 6-311+G(2d,p)
 ****
 1  2  13  14  15  16  17  18  19  20  21  22  24  25  27  28  29 0
 3-21G
 ****
 32  34  39  40  41  42  43  44  45  46  47  48  49 0
 3-21G
 ****


