%nproc=1
%NoSave
%Mem=1900MB
#P OB98/GEN NMR

erre ene a

0 1
  C      -16.350     122.603      18.648
  O      -16.975     123.089      17.479
  H      -16.248     121.518      18.564
  H      -16.954     122.830      19.529
  H      -15.353     123.039      18.757
  P      -17.305     124.653      17.375
  C      -15.913     125.106      15.249
  O      -17.216     125.043      15.821
  C      -15.976     124.765      13.756
  O      -16.197     123.338      13.639
  C      -17.120     125.492      13.035
  O      -16.689     126.209      11.881
  C      -18.161     124.397      12.838
  O      -19.030     124.599      11.744
  C      -17.312     123.123      12.754
  N      -18.033     121.906      13.120
  C      -18.994     121.442      12.227
  O      -19.267     121.960      11.146
  N      -19.661     120.308      12.614
  C      -19.472     119.620      13.774
  O      -20.096     118.606      14.064
  C      -18.460     120.172      14.686
  C      -17.797     121.274      14.324
  O      -16.525     125.540      18.287
  O      -18.875     124.739      17.677
  H      -19.527     123.767      11.600
  H      -19.016     125.049      18.591
  H      -20.352     119.956      11.970
  H      -18.291     119.658      15.621
  H      -17.042     121.707      14.972
  H      -16.924     122.988      11.744
  H      -18.786     124.351      13.739
  H      -17.547     126.276      13.672
  H      -15.004     124.988      13.302
  H      -15.279     124.387      15.776
  H      -15.501     126.112      15.383
  P      -17.532     127.351      11.153
  C      -15.939     129.417      11.409
  O      -16.507     128.428      10.563
  O      -18.700     127.876      11.917
  O      -18.103     126.610       9.838
  H      -18.975     127.011       9.649
  H      -15.284     130.041      10.838
  H      -15.386     128.942      12.192
  H      -16.719     130.014      11.834

 6  7  8  9  10  11  12  13  14  15  16  26  31  32  33  34  35 0
 6-311+G(2d,p)
 ****
 36  37 0
 6-311+G(2d,p)
 ****
 1  2  3  4  5  17  18  19  20  21  22  23  24  25 0
 3-21G
 ****
 27  28  29  30  38  39  40  41  42  43  44  45 0
 3-21G
 ****


