%nproc=1
%NoSave
%Mem=1900MB
#P OB98/GEN NMR

erre ene a

0 1
  C       78.369    -189.027     -62.094
  O       78.828    -189.305     -60.784
  H       78.928    -188.176     -62.486
  H       77.304    -188.780     -62.091
  H       78.548    -189.892     -62.742
  P       77.980    -190.331     -59.889
  C       80.165    -191.627     -59.440
  O       78.818    -191.705     -59.901
  C       80.371    -192.472     -58.185
  O       79.378    -192.157     -57.188
  C       80.233    -193.970     -58.414
  O       81.234    -194.542     -59.224
  C       80.035    -194.486     -56.997
  O       81.271    -194.651     -56.303
  C       79.217    -193.337     -56.363
  N       77.810    -193.685     -56.187
  C       77.520    -194.536     -55.130
  O       78.375    -195.003     -54.379
  N       76.200    -194.864     -54.975
  C       75.176    -194.475     -55.787
  O       74.016    -194.822     -55.611
  C       75.556    -193.606     -56.917
  C       76.832    -193.254     -57.064
  O       76.539    -190.495     -60.281
  O       78.184    -189.797     -58.394
  H       81.907    -195.044     -56.934
  H       77.518    -190.192     -57.779
  H       75.966    -195.468     -54.202
  H       74.772    -193.287     -57.589
  H       77.134    -192.612     -57.884
  H       79.628    -193.078     -55.376
  H       79.523    -195.450     -56.979
  H       79.285    -194.150     -58.941
  H       81.353    -192.226     -57.765
  H       80.375    -190.578     -59.203
  H       80.842    -191.954     -60.234
  P       80.952    -195.638     -60.343
  C       81.265    -194.138     -62.465
  O       80.382    -194.902     -61.651
  O       80.278    -196.896     -59.895
  O       82.455    -196.026     -60.802
  H       82.445    -196.974     -61.036
  H       80.721    -193.721     -63.287
  H       82.044    -194.770     -62.836
  H       81.693    -193.348     -61.883

 6  7  8  9  10  11  12  13  14  15  16  26  31  32  33  34  35 0
 6-311+G(2d,p)
 ****
 36  37 0
 6-311+G(2d,p)
 ****
 1  2  3  4  5  17  18  19  20  21  22  23  24  25 0
 3-21G
 ****
 27  28  29  30  38  39  40  41  42  43  44  45 0
 3-21G
 ****


