%nproc=1
%NoSave
%Mem=1900MB
#P OB98/GEN NMR

erre ene a

0 1
  C      -37.316    -476.337    -119.187
  O      -38.619    -475.865    -118.901
  H      -36.593    -475.601    -118.826
  H      -37.199    -476.454    -120.268
  H      -37.121    -477.294    -118.692
  P      -39.834    -476.908    -118.906
  C      -41.440    -477.921    -120.659
  O      -40.254    -477.165    -120.437
  C      -41.328    -478.803    -121.901
  O      -40.138    -479.613    -121.833
  C      -42.504    -479.778    -122.025
  O      -43.667    -479.253    -122.635
  C      -41.896    -480.889    -122.881
  O      -42.000    -480.576    -124.282
  C      -40.425    -480.891    -122.439
  N      -38.605    -485.618    -121.779
  C      -38.810    -484.924    -122.951
  N      -38.553    -485.598    -124.097
  N      -39.251    -483.694    -122.995
  C      -39.548    -483.183    -121.780
  C      -39.403    -483.779    -120.548
  C      -38.864    -485.122    -120.506
  O      -38.671    -485.787    -119.489
  N      -39.817    -482.949    -119.528
  C      -40.281    -481.885    -120.153
  N      -40.119    -481.967    -121.514
  O      -41.067    -476.048    -118.351
  O      -39.622    -478.143    -118.084
  H      -41.576    -481.296    -124.785
  H      -41.719    -476.638    -117.927
  H      -38.239    -486.558    -121.802
  H      -40.720    -481.020    -119.665
  H      -39.753    -480.997    -123.297
  H      -42.410    -481.841    -122.729
  H      -38.329    -486.581    -124.118
  H      -42.757    -480.198    -121.045
  H      -38.941    -485.226    -124.962
  H      -41.238    -478.167    -122.790
  H      -42.249    -477.196    -120.781
  H      -41.676    -478.526    -119.775
  P      -45.090    -479.952    -122.387
  C      -46.006    -482.342    -122.842
  O      -45.077    -481.338    -123.186
  O      -46.087    -479.026    -123.227
  O      -45.497    -480.046    -120.955
  H      -46.511    -478.368    -122.649
  H      -45.859    -483.195    -123.471
  H      -47.000    -481.969    -122.975
  H      -45.864    -482.624    -121.820

 6  7  8  9  10  11  12  13  14  15  26  29  33  34 0
 6-311+G(2d,p)
 ****
 36  38  39  40  41 0
 6-311+G(2d,p)
 ****
 1  2  3  4  5  16  17  18  19  20  21  22  23  24  25 0
 3-21G
 ****
 27  28  30  31  32  35  37  42  43  44  45  46  47 0
 3-21G
 ****
 48  49 0
 3-21G
 ****


