%nproc=1
%NoSave
%Mem=1900MB
#P OB98/GEN NMR

erre ene a

0 1
  C     -227.416    -113.896      41.304
  O     -226.764    -114.593      42.343
  P     -226.842    -114.090      43.860
  C     -229.146    -115.228      44.043
  O     -228.400    -114.033      44.251
  C     -230.457    -115.181      44.837
  O     -231.255    -116.356      44.493
  C     -230.233    -115.191      46.364
  O     -230.895    -114.137      47.064
  C     -230.652    -116.600      46.753
  O     -230.990    -116.740      48.120
  C     -231.759    -116.888      45.734
  N     -232.077    -118.311      45.641
  C     -232.883    -118.845      46.641
  O     -233.347    -118.203      47.579
  N     -233.106    -120.193      46.574
  C     -232.523    -121.059      45.699
  O     -232.691    -122.269      45.758
  C     -231.648    -120.441      44.689
  C     -231.485    -119.115      44.688
  O     -226.090    -112.837      44.157
  O     -226.339    -115.364      44.691
  H     -230.303    -116.286      48.647
  H     -226.872    -116.168      44.568
  H     -233.688    -120.595      47.294
  H     -231.165    -121.103      43.987
  H     -230.846    -118.633      43.958
  H     -232.674    -116.345      45.972
  H     -229.801    -117.264      46.566
  H     -229.173    -115.046      46.607
  H     -231.004    -114.288      44.525
  H     -228.551    -116.077      44.386
  H     -229.335    -115.368      42.975
  P     -230.588    -113.703      48.573
  C     -228.057    -113.124      48.401
  O     -229.047    -114.012      48.878
  O     -231.549    -114.218      49.592
  O     -230.629    -112.103      48.516
  H     -230.910    -111.752      49.383
  H     -227.135    -113.685      48.233
  H     -227.869    -112.357      49.154
  H     -228.359    -112.653      47.460
  H     -227.239    -114.395      40.374
  H     -227.036    -112.897      41.251
  H     -228.468    -113.867      41.499

 3  4  5  6  7  8  9  10  11  12  13  23  28  29  30  31  32 0
 6-311+G(2d,p)
 ****
 33  34 0
 6-311+G(2d,p)
 ****
 1  2  14  15  16  17  18  19  20  21  22  24  25  26  27 0
 3-21G
 ****
 35  36  37  38  39  40  41  42  43  44  45 0
 3-21G
 ****


