%nproc=1
%NoSave
%Mem=1900MB
#P OB98/GEN NMR

erre ene a

0 1
  C      201.447      31.254     121.555
  O      202.647      30.579     121.200
  P      203.004      30.436     119.645
  C      201.706      28.198     119.451
  O      201.853      29.530     118.979
  C      200.631      27.449     118.659
  O      199.347      28.090     118.881
  C      200.866      27.414     117.144
  O      200.346      26.170     116.662
  C      199.989      28.548     116.636
  O      199.675      28.409     115.254
  C      198.798      28.417     117.583
  N      194.100      30.418     117.348
  C      194.539      29.145     117.260
  N      195.808      28.691     117.333
  C      196.667      29.707     117.514
  C      196.368      31.060     117.589
  C      195.010      31.409     117.503
  N      194.559      32.704     117.601
  N      197.520      31.801     117.750
  C      198.495      30.914     117.772
  N      198.024      29.637     117.660
  O      204.277      29.465     119.666
  O      203.304      31.713     118.938
  H      199.145      27.598     115.141
  H      205.076      29.957     119.391
  H      193.768      28.391     117.117
  H      199.548      31.146     117.870
  H      198.123      27.605     117.289
  H      200.505      29.505     116.773
  H      201.913      27.528     116.850
  H      200.557      26.429     119.059
  H      201.407      28.228     120.503
  H      193.564      32.865     117.668
  H      195.205      33.427     117.905
  H      202.662      27.674     119.376
  P      201.350      25.239     115.829
  C      200.834      26.519     113.631
  O      201.815      26.088     114.554
  O      200.387      24.117     115.208
  O      202.441      24.633     116.648
  H      200.884      23.291     115.066
  H      201.137      27.485     113.219
  H      199.851      26.631     114.106
  H      200.758      25.792     112.819
  H      201.348      31.269     122.620
  H      200.610      30.744     121.126
  H      201.480      32.258     121.186

 3  4  5  6  7  8  9  10  11  12  22  25  29  30  31  32 0
 6-311+G(2d,p)
 ****
 33  36  37 0
 6-311+G(2d,p)
 ****
 1  2  13  14  15  16  17  18  19  20  21  23  24  26 0
 3-21G
 ****
 27  28  34  35  38  39  40  41  42  43  44  45  46  47  48 0
 3-21G
 ****


