%nproc=1
%NoSave
%Mem=1900MB
#P OB98/GEN NMR

erre ene a

0 1
  C     -558.429    -701.648    -189.264
  O     -558.787    -702.009    -187.930
  P     -557.677    -701.780    -186.796
  C     -559.453    -701.767    -184.910
  O     -558.253    -702.346    -185.406
  C     -560.683    -702.575    -185.338
  O     -560.536    -703.979    -184.976
  C     -561.989    -702.093    -184.711
  O     -563.042    -702.301    -185.662
  C     -562.185    -703.044    -183.549
  O     -563.546    -703.057    -183.110
  C     -561.677    -704.336    -184.178
  N     -562.055    -709.265    -182.889
  C     -562.516    -708.570    -183.953
  N     -562.392    -707.254    -184.209
  C     -561.668    -706.645    -183.250
  C     -561.142    -707.223    -182.103
  C     -561.361    -708.600    -181.940
  N     -560.915    -709.306    -180.840
  N     -560.500    -706.275    -181.332
  C     -560.646    -705.142    -182.002
  N     -561.315    -705.330    -183.180
  O     -557.683    -700.192    -186.590
  O     -556.317    -702.273    -187.170
  H     -563.716    -702.221    -182.626
  H     -556.868    -699.805    -186.969
  H     -563.066    -709.149    -184.689
  H     -560.291    -704.184    -181.680
  H     -562.422    -704.810    -184.834
  H     -561.549    -702.744    -182.707
  H     -561.980    -701.039    -184.393
  H     -560.763    -702.529    -186.439
  H     -559.555    -700.742    -185.276
  H     -561.142    -710.285    -180.780
  H     -560.437    -708.818    -180.102
  H     -559.388    -701.694    -183.819
  P     -564.046    -701.072    -185.898
  C     -564.214    -700.678    -188.465
  O     -564.741    -701.328    -187.315
  O     -563.066    -699.825    -186.179
  O     -564.971    -700.814    -184.762
  H     -563.510    -698.996    -185.939
  H     -564.223    -701.387    -189.299
  H     -563.182    -700.344    -188.301
  H     -564.843    -699.829    -188.706
  H     -559.250    -701.848    -189.920
  H     -557.579    -702.220    -189.572
  H     -558.190    -700.606    -189.299

 3  4  5  6  7  8  9  10  11  12  22  25  29  30  31  32 0
 6-311+G(2d,p)
 ****
 33  36  37 0
 6-311+G(2d,p)
 ****
 1  2  13  14  15  16  17  18  19  20  21  23  24  26 0
 3-21G
 ****
 27  28  34  35  38  39  40  41  42  43  44  45  46  47  48 0
 3-21G
 ****


