%nproc=1
%NoSave
%Mem=1900MB
#P OB98/GEN NMR

erre ene a

0 1
  C       40.249     -22.484    -538.882
  O       39.009     -21.963    -539.309
  H       40.988     -21.677    -538.881
  H       40.588     -23.267    -539.569
  H       40.179     -22.887    -537.867
  P       37.706     -22.890    -539.207
  C       36.340     -24.021    -541.079
  O       37.632     -23.742    -540.563
  C       36.447     -24.598    -542.491
  O       37.028     -23.620    -543.389
  C       37.348     -25.829    -542.591
  O       36.690     -26.976    -542.083
  C       37.628     -25.854    -544.086
  O       36.524     -26.439    -544.799
  C       37.751     -24.349    -544.402
  N       39.149     -23.888    -544.477
  C       39.769     -24.013    -545.718
  O       39.220     -24.499    -546.698
  N       41.062     -23.544    -545.779
  C       41.797     -23.072    -544.728
  O       42.965     -22.718    -544.828
  C       41.091     -23.010    -543.440
  C       39.826     -23.408    -543.369
  O       36.436     -22.189    -538.836
  O       38.104     -23.987    -538.113
  H       36.736     -26.365    -545.752
  H       37.715     -23.756    -537.247
  H       41.535     -23.634    -546.665
  H       41.649     -22.640    -542.580
  H       39.296     -23.370    -542.427
  H       37.274     -24.115    -545.356
  H       38.514     -26.445    -544.340
  H       38.291     -25.655    -542.058
  H       35.438     -24.829    -542.843
  H       35.763     -23.087    -541.119
  H       35.827     -24.724    -540.411
  P       37.528     -28.194    -541.458
  C       37.972     -30.616    -542.124
  O       37.677     -29.317    -542.593
  O       37.023     -28.695    -540.142
  O       39.015     -27.604    -541.318
  H       39.217     -27.413    -540.382
  H       38.050     -31.286    -542.955
  H       37.190     -30.946    -541.472
  H       38.899     -30.600    -541.590

 6  7  8  9  10  11  12  13  14  15  16  26  31  32  33  34  35 0
 6-311+G(2d,p)
 ****
 36  37 0
 6-311+G(2d,p)
 ****
 1  2  3  4  5  17  18  19  20  21  22  23  24  25 0
 3-21G
 ****
 27  28  29  30  38  39  40  41  42  43  44  45 0
 3-21G
 ****


