%nproc=1
%NoSave
%Mem=1900MB
#P OB98/GEN NMR

erre ene a

0 1
  C      196.718      28.939     -75.421
  O      197.970      28.784     -74.741
  P      199.191      28.137     -75.551
  C      199.744      30.265     -76.939
  O      200.186      29.318     -75.979
  C      200.916      30.726     -77.810
  O      200.463      31.276     -79.067
  C      201.768      31.810     -77.165
  O      202.725      31.265     -76.265
  C      202.474      32.391     -78.381
  O      203.584      31.547     -78.751
  C      201.377      32.334     -79.449
  N      200.485      36.303     -82.459
  C      201.286      35.195     -82.659
  N      201.942      35.131     -83.841
  N      201.433      34.236     -81.782
  C      200.704      34.424     -80.659
  C      199.877      35.477     -80.343
  C      199.735      36.538     -81.314
  O      199.050      37.549     -81.185
  N      199.314      35.315     -79.103
  C      199.784      34.158     -78.676
  N      200.647      33.585     -79.577
  O      198.516      27.722     -76.944
  O      199.824      26.966     -74.875
  H      203.772      31.732     -79.691
  H      198.993      26.965     -77.330
  H      200.413      37.013     -83.166
  H      199.531      33.696     -77.732
  H      201.772      32.089     -80.441
  H      202.884      33.386     -78.188
  H      201.836      35.809     -84.578
  H      201.143      32.577     -76.690
  H      202.508      34.312     -84.018
  H      201.548      29.852     -78.022
  H      199.289      31.127     -76.443
  H      198.949      29.816     -77.542
  P      202.710      31.786     -74.749
  C      201.364      29.963     -73.482
  O      202.633      30.476     -73.831
  O      201.255      32.442     -74.613
  O      203.788      32.757     -74.415
  H      201.283      33.184     -73.982
  H      201.502      28.991     -73.000
  H      200.741      29.829     -74.369
  H      200.869      30.637     -72.777
  H      196.004      29.381     -74.758
  H      196.364      27.981     -75.739
  H      196.851      29.571     -76.274

 3  4  5  6  7  8  9  10  11  12  23  26  30  31 0
 6-311+G(2d,p)
 ****
 33  35  36  37  38 0
 6-311+G(2d,p)
 ****
 1  2  13  14  15  16  17  18  19  20  21  22  24  25 0
 3-21G
 ****
 27  28  29  32  34  39  40  41  42  43  44  45  46  47  48  49 0
 3-21G
 ****


