%nproc=1
%NoSave
%Mem=1900MB
#P OB98/GEN NMR

erre ene a

0 1
  C      384.571     442.864    1091.828
  O      383.814     443.035    1093.020
  P      382.754     444.233    1093.157
  C      381.165     442.936    1091.608
  O      381.861     444.164    1091.827
  C      379.660     443.215    1091.512
  O      379.178     443.590    1092.833
  C      379.243     444.364    1090.595
  O      379.118     444.018    1089.231
  C      377.869     444.707    1091.152
  O      376.905     443.738    1090.673
  C      378.074     444.526    1092.675
  N      376.160     448.458    1095.314
  C      375.590     447.346    1094.806
  N      376.154     446.348    1094.099
  C      377.483     446.577    1093.957
  C      378.202     447.661    1094.416
  C      377.482     448.640    1095.128
  N      378.080     449.767    1095.654
  N      379.528     447.555    1094.055
  C      379.614     446.410    1093.409
  N      378.397     445.779    1093.336
  O      383.355     445.558    1093.476
  O      381.742     443.734    1094.298
  H      376.830     443.859    1089.710
  H      381.223     444.479    1094.639
  H      374.523     447.222    1095.006
  H      380.513     445.995    1092.977
  H      377.205     444.085    1093.165
  H      377.506     445.693    1090.852
  H      379.898     445.237    1090.722
  H      379.147     442.295    1091.224
  H      381.353     442.275    1092.461
  H      377.521     450.353    1096.247
  H      379.088     449.826    1095.647
  H      381.522     442.459    1090.700
  P      379.243     445.201    1088.148
  C      381.788     444.678    1087.801
  O      380.796     445.617    1088.131
  O      378.285     446.318    1088.347
  O      379.053     444.442    1086.756
  H      379.776     443.816    1086.507
  H      382.737     445.198    1087.690
  H      381.553     444.183    1086.848
  H      381.873     443.924    1088.587
  H      385.216     442.017    1091.934
  H      385.159     443.740    1091.650
  H      383.907     442.706    1091.004

 3  4  5  6  7  8  9  10  11  12  22  25  29  30  31  32 0
 6-311+G(2d,p)
 ****
 33  36  37 0
 6-311+G(2d,p)
 ****
 1  2  13  14  15  16  17  18  19  20  21  23  24  26 0
 3-21G
 ****
 27  28  34  35  38  39  40  41  42  43  44  45  46  47  48 0
 3-21G
 ****


