%nproc=1
%NoSave
%Mem=1900MB
#P OB98/GEN NMR

erre ene a

0 1
  C      439.481     767.697     304.036
  O      439.643     766.635     303.111
  H      438.409     767.872     304.183
  H      439.929     768.615     303.640
  H      439.930     767.450     304.998
  P      441.116     766.073     302.832
  C      443.273     766.984     301.749
  O      441.974     767.288     302.239
  C      443.548     767.789     300.470
  O      443.314     769.188     300.700
  C      444.984     767.658     299.965
  O      445.194     766.422     299.326
  C      445.062     768.877     299.049
  O      444.464     768.594     297.770
  C      444.221     769.920     299.827
  N      445.047     770.856     300.593
  C      445.652     771.881     299.870
  O      445.549     772.000     298.643
  N      446.418     772.760     300.596
  C      446.721     772.646     301.923
  O      447.480     773.404     302.507
  C      446.077     771.533     302.631
  C      445.290     770.703     301.951
  O      441.189     764.809     302.044
  O      441.730     765.883     304.301
  H      445.159     768.163     297.234
  H      441.748     764.935     304.524
  H      446.870     773.492     300.086
  H      446.282     771.413     303.689
  H      444.798     769.871     302.458
  H      443.593     770.495     299.142
  H      446.088     769.187     298.861
  H      445.680     767.810     300.789
  H      442.835     767.447     299.697
  H      443.325     765.916     301.526
  H      444.017     767.233     302.522
  P      446.685     765.851     299.181
  C      448.960     766.862     298.548
  O      447.552     766.931     298.378
  O      446.789     764.444     298.674
  O      447.273     765.958     300.670
  H      447.526     765.061     300.988
  H      449.428     767.629     297.966
  H      449.312     765.904     298.225
  H      449.202     767.001     299.581

 6  7  8  9  10  11  12  13  14  15  16  26  31  32  33  34  35 0
 6-311+G(2d,p)
 ****
 36  37 0
 6-311+G(2d,p)
 ****
 1  2  3  4  5  17  18  19  20  21  22  23  24  25 0
 3-21G
 ****
 27  28  29  30  38  39  40  41  42  43  44  45 0
 3-21G
 ****


