%nproc=1
%NoSave
%Mem=1900MB
#P OB98/GEN NMR

erre ene a

0 1
  C       65.173    -338.660      -5.474
  O       64.336    -338.675      -4.314
  P       64.270    -340.026      -3.443
  C       62.302    -341.208      -4.648
  O       63.704    -341.212      -4.373
  C       61.942    -342.305      -5.658
  O       62.651    -342.064      -6.897
  C       62.337    -343.729      -5.222
  O       61.401    -344.490      -4.457
  C       62.462    -344.429      -6.577
  O       61.154    -344.854      -7.029
  C       62.999    -343.337      -7.508
  N       66.779    -346.167      -9.473
  C       65.436    -346.348      -9.421
  N       64.496    -345.546      -8.882
  C       65.061    -344.448      -8.363
  C       66.411    -344.117      -8.323
  C       67.301    -345.046      -8.919
  N       68.659    -344.857      -8.955
  N       66.607    -342.908      -7.693
  C       65.396    -342.520      -7.328
  N       64.422    -343.411      -7.718
  O       63.626    -339.900      -2.106
  O       65.818    -340.417      -3.305
  H       60.582    -344.069      -6.988
  H       65.969    -340.787      -2.407
  H       65.066    -347.270      -9.880
  H       65.178    -341.610      -6.777
  H       62.522    -343.361      -8.492
  H       63.085    -345.322      -6.526
  H       63.309    -343.726      -4.720
  H       60.865    -342.272      -5.866
  H       62.014    -340.228      -5.054
  H       69.224    -345.589      -9.357
  H       69.067    -344.053      -8.506
  H       61.785    -341.317      -3.690
  P       61.534    -344.616      -2.867
  C       63.079    -346.743      -2.811
  O       62.947    -345.341      -2.612
  O       60.371    -345.261      -2.183
  O       61.815    -343.110      -2.422
  H       62.684    -342.766      -2.694
  H       64.145    -346.998      -2.804
  H       62.658    -347.040      -3.779
  H       62.569    -347.280      -2.004
  H       65.113    -337.701      -5.945
  H       64.847    -339.415      -6.159
  H       66.185    -338.853      -5.186

 3  4  5  6  7  8  9  10  11  12  22  25  29  30  31  32 0
 6-311+G(2d,p)
 ****
 33  36  37 0
 6-311+G(2d,p)
 ****
 1  2  13  14  15  16  17  18  19  20  21  23  24  26 0
 3-21G
 ****
 27  28  34  35  38  39  40  41  42  43  44  45  46  47  48 0
 3-21G
 ****


