%nproc=1
%NoSave
%Mem=1900MB
#P OB98/GEN NMR

erre ene a

0 1
  C      -10.525      12.474      42.653
  O       -9.969      12.452      41.352
  H      -11.533      12.891      42.595
  H       -9.920      13.102      43.313
  H      -10.585      11.458      43.051
  P       -8.467      11.904      41.221
  C       -6.858      13.861      40.686
  O       -7.551      13.134      41.692
  C       -7.842      14.646      39.822
  O       -8.727      15.420      40.650
  C       -7.186      15.631      38.861
  O       -6.768      14.968      37.679
  C       -8.343      16.580      38.585
  O       -9.214      16.005      37.591
  C       -9.066      16.640      39.943
  N      -10.261      21.469      41.215
  C      -10.691      20.673      40.212
  N      -10.291      19.422      39.900
  C       -9.350      18.994      40.760
  C       -8.812      19.695      41.828
  C       -9.310      20.990      42.050
  N       -8.868      21.799      43.074
  N       -7.863      18.938      42.485
  C       -7.874      17.780      41.858
  N       -8.729      17.774      40.784
  O       -8.115      11.284      39.911
  O       -8.392      10.917      42.482
  H       -8.681      15.889      36.782
  H       -8.839      11.311      43.251
  H      -11.457      21.101      39.571
  H       -7.300      16.907      42.152
  H      -10.155      16.656      39.821
  H       -8.012      17.545      38.198
  H       -6.372      16.187      39.340
  H       -8.460      13.922      39.274
  H       -6.278      13.176      40.057
  H       -9.134      22.771      43.043
  H       -8.071      21.488      43.611
  H       -6.164      14.542      41.187
  P       -5.613      15.581      36.749
  C       -6.322      16.840      34.622
  O       -6.283      16.856      36.044
  O       -4.967      14.599      35.837
  O       -4.585      16.240      37.781
  H       -3.728      16.404      37.340
  H       -6.788      17.736      34.268
  H       -6.882      15.991      34.290
  H       -5.325      16.781      34.238

 6  7  8  9  10  11  12  13  14  15  25  28  32  33  34  35 0
 6-311+G(2d,p)
 ****
 36  39  40 0
 6-311+G(2d,p)
 ****
 1  2  3  4  5  16  17  18  19  20  21  22  23  24 0
 3-21G
 ****
 26  27  29  30  31  37  38  41  42  43  44  45  46  47 0
 3-21G
 ****
 48 0
 3-21G
 ****


