%nproc=1
%NoSave
%Mem=1900MB
#P OB98/GEN NMR

erre ene a

0 1
  C      392.341    -899.219     -66.729
  O      391.465    -898.319     -67.418
  P      390.879    -897.059     -66.607
  C      391.648    -895.049     -68.075
  O      391.829    -895.799     -66.873
  C      392.895    -895.159     -68.969
  O      393.109    -896.519     -69.422
  C      392.815    -894.319     -70.240
  O      393.170    -892.979     -69.979
  C      393.889    -894.999     -71.087
  O      395.186    -894.539     -70.701
  C      393.704    -896.479     -70.734
  N      393.408    -898.579     -75.407
  C      394.397    -897.889     -74.771
  N      394.390    -897.349     -73.539
  C      393.230    -897.589     -72.924
  C      392.126    -898.279     -73.421
  C      392.244    -898.779     -74.725
  N      391.245    -899.499     -75.353
  N      391.100    -898.319     -72.503
  C      391.576    -897.659     -71.458
  N      392.855    -897.199     -71.655
  O      391.198    -897.449     -65.080
  O      389.420    -896.829     -66.824
  H      395.150    -893.559     -70.682
  H      390.490    -897.109     -64.510
  H      395.306    -897.759     -75.357
  H      391.046    -897.509     -70.525
  H      394.664    -897.009     -70.683
  H      393.767    -894.749     -72.161
  H      391.825    -894.409     -70.712
  H      393.763    -894.859     -68.367
  H      391.455    -893.999     -67.838
  H      391.395    -899.859     -76.267
  H      390.385    -899.659     -74.835
  H      390.757    -895.419     -68.594
  P      392.042    -892.029     -69.313
  C      392.926    -891.209     -67.016
  O      392.224    -892.199     -67.736
  O      390.687    -892.819     -69.637
  O      392.018    -890.639     -69.827
  H      389.939    -892.199     -69.729
  H      392.687    -891.309     -65.947
  H      392.630    -890.209     -67.338
  H      393.995    -891.319     -67.157
  H      392.645    -900.000     -67.394
  H      391.829    -899.644     -65.891
  H      393.203    -898.686     -66.387

 3  4  5  6  7  8  9  10  11  12  22  25  29  30  31  32 0
 6-311+G(2d,p)
 ****
 33  36  37 0
 6-311+G(2d,p)
 ****
 1  2  13  14  15  16  17  18  19  20  21  23  24  26 0
 3-21G
 ****
 27  28  34  35  38  39  40  41  42  43  44  45  46  47  48 0
 3-21G
 ****


