%nproc=1
%NoSave
%Mem=1900MB
#P OB98/GEN NMR

erre ene a

0 1
  C      -40.075      26.862      86.846
  O      -41.144      27.776      86.691
  H      -39.780      26.499      85.857
  H      -40.376      26.009      87.458
  H      -39.218      27.364      87.304
  P      -41.940      28.238      88.006
  C      -43.497      27.066      89.695
  O      -42.797      26.954      88.459
  C      -44.154      25.740      90.081
  O      -43.156      24.762      90.443
  C      -45.069      25.828      91.294
  O      -46.234      26.596      91.099
  C      -45.197      24.367      91.696
  O      -46.183      23.676      90.928
  C      -43.786      23.831      91.351
  N      -42.973      23.606      92.542
  C      -43.202      22.415      93.221
  O      -44.050      21.589      92.879
  N      -42.443      22.212      94.342
  C      -41.533      23.085      94.860
  O      -40.898      22.851      95.883
  C      -41.360      24.346      94.121
  C      -42.076      24.545      93.010
  O      -42.752      29.491      87.865
  O      -40.805      28.329      89.129
  H      -46.078      23.969      90.002
  H      -41.121      28.836      89.917
  H      -42.584      21.346      94.840
  H      -40.656      25.067      94.511
  H      -41.965      25.468      92.445
  H      -43.864      22.877      90.811
  H      -45.466      24.252      92.748
  H      -44.517      26.324      92.103
  H      -44.690      25.359      89.206
  H      -44.273      27.830      89.572
  H      -42.804      27.388      90.480
  P      -46.799      27.637      92.166
  C      -47.543      27.580      94.672
  O      -47.130      26.851      93.522
  O      -47.796      28.633      91.668
  O      -45.459      28.449      92.568
  H      -45.727      29.372      92.749
  H      -47.720      26.901      95.480
  H      -48.443      28.114      94.451
  H      -46.776      28.273      94.950

 6  7  8  9  10  11  12  13  14  15  16  26  31  32  33  34  35 0
 6-311+G(2d,p)
 ****
 36  37 0
 6-311+G(2d,p)
 ****
 1  2  3  4  5  17  18  19  20  21  22  23  24  25 0
 3-21G
 ****
 27  28  29  30  38  39  40  41  42  43  44  45 0
 3-21G
 ****


