%nproc=1
%NoSave
%Mem=1900MB
#P OB98/GEN NMR

erre ene a

0 1
  C      374.328     170.533     509.722
  O      373.613     170.183     510.905
  P      372.414     169.128     510.759
  C      369.846     169.278     510.240
  O      371.064     169.953     510.507
  C      368.987     170.070     509.238
  O      368.394     171.192     509.928
  C      369.751     170.676     508.058
  O      368.814     170.990     507.024
  C      370.285     171.955     508.665
  O      370.674     172.886     507.664
  C      369.118     172.401     509.577
  N      369.559     173.105     510.802
  C      369.265     174.461     510.930
  O      368.658     175.115     510.084
  N      369.727     175.072     512.065
  C      370.407     174.471     513.082
  O      370.870     175.083     514.032
  C      370.566     173.012     512.960
  C      370.154     172.414     511.845
  O      372.251     168.539     512.237
  O      372.682     168.055     509.757
  H      371.112     173.637     508.134
  H      372.615     167.643     512.284
  H      369.580     176.068     512.138
  H      371.040     172.485     513.777
  H      370.285     171.337     511.729
  H      368.434     173.078     509.042
  H      371.170     171.738     509.269
  H      370.550     170.045     507.664
  H      368.172     169.430     508.879
  H      369.296     169.127     511.173
  H      370.059     168.284     509.828
  P      368.568     169.891     505.881
  C      369.272     169.591     503.427
  O      369.422     170.359     504.608
  O      367.140     169.545     505.610
  O      369.394     168.625     506.414
  H      369.082     167.817     505.967
  H      369.440     170.241     502.566
  H      368.266     169.155     503.354
  H      370.015     168.790     503.425
  H      375.094     171.240     509.964
  H      373.654     170.966     509.013
  H      374.773     169.655     509.301

 3  4  5  6  7  8  9  10  11  12  13  23  28  29  30  31  32 0
 6-311+G(2d,p)
 ****
 33  34 0
 6-311+G(2d,p)
 ****
 1  2  14  15  16  17  18  19  20  21  22  24  25  26  27 0
 3-21G
 ****
 35  36  37  38  39  40  41  42  43  44  45 0
 3-21G
 ****


