%nproc=1
%NoSave
%Mem=1900MB
#P OB98/GEN NMR

erre ene a

0 1
  C      428.877     138.967     402.418
  O      429.162     139.684     403.608
  P      430.112     139.058     404.745
  C      428.401     138.120     406.441
  O      429.273     137.835     405.351
  C      428.598     137.081     407.546
  O      428.400     135.760     407.010
  C      429.987     137.077     408.168
  O      430.152     138.165     409.067
  C      430.011     135.688     408.802
  O      429.301     135.697     410.049
  C      429.240     134.852     407.760
  N      430.120     134.092     406.876
  C      430.087     132.701     407.009
  O      429.346     132.159     407.835
  N      430.878     131.939     406.185
  C      431.651     132.520     405.317
  N      432.360     131.716     404.478
  C      431.754     133.986     405.177
  C      430.965     134.701     405.974
  O      430.611     140.033     405.751
  O      431.268     138.314     403.936
  H      429.864     136.181     410.687
  H      432.040     138.895     403.720
  H      432.424     134.419     404.450
  H      430.969     135.779     405.924
  H      428.557     134.160     408.265
  H      431.025     135.316     408.994
  H      430.754     137.138     407.384
  H      427.834     137.258     408.317
  H      432.131     130.727     404.489
  H      427.368     138.071     406.084
  H      432.744     132.064     403.611
  H      428.602     139.132     406.811
  P      431.515     139.003     408.966
  C      432.496     138.617     411.340
  O      432.550     138.282     409.961
  O      431.148     140.377     409.704
  O      432.004     139.217     407.577
  H      430.970     141.077     409.046
  H      433.082     137.881     411.897
  H      431.466     138.598     411.705
  H      432.932     139.608     411.497
  H      428.232     139.551     401.795
  H      428.395     138.044     402.664
  H      429.789     138.765     401.896

 3  4  5  6  7  8  9  10  11  12  13  23  27  28  29  30  32 0
 6-311+G(2d,p)
 ****
 34  35 0
 6-311+G(2d,p)
 ****
 1  2  14  15  16  17  18  19  20  21  22  24  25  26 0
 3-21G
 ****
 31  33  36  37  38  39  40  41  42  43  44  45  46 0
 3-21G
 ****


