%nproc=1
%NoSave
%Mem=1900MB
#P OB98/GEN NMR

erre ene a

0 1
  C      -59.117      -3.868     104.615
  O      -58.301      -4.732     105.402
  P      -57.614      -4.142     106.725
  C      -55.228      -3.191     107.371
  O      -56.145      -3.615     106.386
  C      -54.042      -2.483     106.691
  O      -53.137      -3.454     106.121
  C      -54.468      -1.549     105.559
  O      -54.799      -0.256     106.032
  C      -53.245      -1.573     104.657
  O      -52.211      -0.727     105.196
  C      -52.830      -3.061     104.750
  N      -53.472      -4.022     103.829
  C      -52.980      -5.323     103.733
  O      -52.021      -5.748     104.370
  N      -53.645      -6.155     102.869
  C      -54.824      -5.888     102.233
  O      -55.407      -6.693     101.517
  C      -55.381      -4.553     102.484
  C      -54.691      -3.697     103.242
  O      -57.357      -5.434     107.630
  O      -58.434      -3.112     107.439
  H      -51.502      -0.679     104.531
  H      -57.891      -5.390     108.445
  H      -53.261      -7.079     102.731
  H      -56.338      -4.313     102.040
  H      -55.094      -2.705     103.434
  H      -51.746      -3.166     104.614
  H      -53.477      -1.180     103.670
  H      -55.303      -1.988     105.002
  H      -53.494      -1.916     107.454
  H      -54.867      -4.039     107.959
  H      -55.727      -2.511     108.068
  P      -56.315       0.091     106.411
  C      -58.312       1.032     105.098
  O      -57.053       0.382     105.014
  O      -56.507       1.122     107.473
  O      -56.931      -1.331     106.836
  H      -56.904      -1.445     107.814
  H      -58.627       1.314     104.090
  H      -58.236       1.935     105.712
  H      -59.051       0.351     105.525
  H      -59.499      -4.407     103.773
  H      -58.533      -3.040     104.273
  H      -59.932      -3.509     105.208

 3  4  5  6  7  8  9  10  11  12  13  23  28  29  30  31  32 0
 6-311+G(2d,p)
 ****
 33  34 0
 6-311+G(2d,p)
 ****
 1  2  14  15  16  17  18  19  20  21  22  24  25  26  27 0
 3-21G
 ****
 35  36  37  38  39  40  41  42  43  44  45 0
 3-21G
 ****


