%nproc=1
%NoSave
%Mem=1900MB
#P OB98/GEN NMR

erre ene a

0 1
  C      172.973    -914.735     -26.570
  O      171.652    -915.177     -26.332
  H      173.118    -913.737     -26.147
  H      173.669    -915.424     -26.077
  H      173.184    -914.726     -27.641
  P      170.478    -914.271     -26.960
  C      168.975    -916.297     -27.560
  O      169.108    -915.106     -26.801
  C      167.703    -917.027     -27.181
  O      167.778    -917.397     -25.774
  C      166.409    -916.203     -27.379
  O      165.435    -916.950     -28.123
  C      165.889    -915.976     -25.966
  O      164.470    -915.950     -25.901
  C      166.478    -917.150     -25.207
  N      164.045    -917.517     -20.737
  C      163.890    -918.177     -21.898
  N      164.622    -918.112     -23.028
  C      165.649    -917.262     -22.850
  C      165.967    -916.521     -21.728
  C      165.087    -916.657     -20.628
  N      165.230    -915.923     -19.474
  N      167.094    -915.734     -21.931
  C      167.431    -915.970     -23.174
  N      166.592    -916.872     -23.786
  O      170.775    -914.334     -28.535
  O      170.444    -912.872     -26.466
  H      164.209    -916.236     -25.001
  H      170.951    -913.427     -28.855
  H      163.037    -918.863     -21.941
  H      168.244    -915.499     -23.714
  H      165.884    -918.060     -25.337
  H      166.273    -915.016     -25.581
  H      166.609    -915.245     -27.891
  H      167.637    -917.964     -27.752
  H      169.840    -916.952     -27.363
  H      164.484    -916.001     -18.779
  H      165.924    -915.205     -19.416
  H      168.973    -916.040     -28.629
  P      164.725    -916.177     -29.339
  C      164.752    -918.124     -31.064
  O      163.967    -917.270     -30.230
  O      165.965    -915.720     -30.246
  O      163.892    -914.997     -28.916
  H      165.940    -914.746     -30.383
  H      164.108    -918.795     -31.593
  H      165.433    -918.685     -30.459
  H      165.302    -917.531     -31.764

 6  7  8  9  10  11  12  13  14  15  25  28  32  33  34  35 0
 6-311+G(2d,p)
 ****
 36  39  40 0
 6-311+G(2d,p)
 ****
 1  2  3  4  5  16  17  18  19  20  21  22  23  24 0
 3-21G
 ****
 26  27  29  30  31  37  38  41  42  43  44  45  46  47  48 0
 3-21G
 ****


