%nproc=1
%NoSave
%Mem=1900MB
#P OB98/GEN NMR

erre ene a

0 1
  C        3.877    -527.897    -386.059
  O        4.753    -528.535    -385.124
  P        6.054    -529.273    -385.700
  C        7.744    -527.705    -384.492
  O        7.264    -528.225    -385.720
  C        8.542    -526.420    -384.730
  O        7.707    -525.355    -385.219
  C        9.219    -525.883    -383.475
  O       10.450    -526.533    -383.216
  C        9.466    -524.432    -383.876
  O       10.649    -524.360    -384.711
  C        8.212    -524.096    -384.703
  N        7.063    -519.949    -382.039
  C        8.229    -520.275    -382.726
  N        9.218    -519.358    -382.704
  N        8.391    -521.405    -383.377
  C        7.303    -522.216    -383.320
  C        6.115    -522.002    -382.670
  C        5.946    -520.758    -381.943
  O        4.959    -520.420    -381.309
  N        5.256    -523.054    -382.826
  C        5.920    -523.909    -383.598
  N        7.182    -523.443    -383.911
  O        5.707    -529.459    -387.251
  O        6.354    -530.594    -385.042
  H       10.623    -523.484    -385.137
  H        6.169    -530.235    -387.609
  H        6.996    -519.068    -381.556
  H        5.532    -524.849    -383.952
  H        8.435    -523.451    -385.554
  H        9.647    -523.782    -383.020
  H        9.140    -518.458    -382.274
  H        8.542    -525.917    -382.613
  H       10.061    -519.568    -383.234
  H        9.315    -526.642    -385.482
  H        8.378    -528.448    -383.995
  H        6.891    -527.533    -383.816
  P       10.428    -527.862    -382.312
  C       11.325    -529.361    -384.236
  O       10.270    -529.090    -383.338
  O        8.999    -527.774    -381.595
  O       11.529    -527.971    -381.320
  H        9.033    -528.189    -380.707
  H       11.125    -530.315    -384.734
  H       12.278    -529.440    -383.698
  H       11.387    -528.570    -384.996
  H        3.059    -527.450    -385.534
  H        3.503    -528.623    -386.750
  H        4.414    -527.141    -386.592

 3  4  5  6  7  8  9  10  11  12  23  26  30  31 0
 6-311+G(2d,p)
 ****
 33  35  36  37  38 0
 6-311+G(2d,p)
 ****
 1  2  13  14  15  16  17  18  19  20  21  22  24  25 0
 3-21G
 ****
 27  28  29  32  34  39  40  41  42  43  44  45  46  47  48  49 0
 3-21G
 ****


