%nproc=1
%NoSave
%Mem=1900MB
#P OB98/GEN NMR

erre ene a

0 1
  C      -68.649     -12.468     305.608
  O      -68.415     -13.202     306.793
  H      -69.235     -11.579     305.856
  H      -69.217     -13.075     304.895
  H      -67.702     -12.155     305.162
  P      -67.586     -14.567     306.634
  C      -65.418     -13.158     306.831
  O      -66.143     -14.293     307.283
  C      -64.032     -13.123     307.469
  O      -64.131     -12.984     308.902
  C      -63.189     -14.367     307.212
  O      -62.550     -14.301     305.948
  C      -62.206     -14.306     308.372
  O      -61.128     -13.386     308.100
  C      -63.090     -13.788     309.515
  N      -62.083     -17.632     312.628
  C      -61.234     -16.727     312.029
  N      -59.913     -16.904     312.251
  N      -61.638     -15.742     311.272
  C      -62.983     -15.708     311.113
  C      -63.931     -16.539     311.667
  C      -63.468     -17.606     312.528
  O      -64.176     -18.401     313.141
  N      -65.194     -16.175     311.284
  C      -65.012     -15.151     310.472
  N      -63.684     -14.841     310.321
  O      -67.274     -14.636     305.065
  O      -68.282     -15.798     307.109
  H      -60.629     -13.226     308.920
  H      -67.228     -15.571     304.788
  H      -61.712     -18.359     313.215
  H      -65.799     -14.605     309.971
  H      -62.538     -13.139     310.202
  H      -61.748     -15.276     308.564
  H      -59.538     -17.802     312.529
  H      -63.798     -15.275     307.300
  H      -59.282     -16.257     311.796
  H      -63.519     -12.229     307.092
  H      -65.964     -12.252     307.112
  H      -65.329     -13.198     305.740
  P      -62.543     -15.630     305.045
  C      -64.321     -14.558     303.479
  O      -63.054     -15.190     303.590
  O      -63.770     -16.477     305.625
  O      -61.263     -16.397     305.077
  H      -63.695     -17.410     305.343
  H      -64.516     -14.328     302.452
  H      -64.321     -13.655     304.053
  H      -65.081     -15.215     303.848

 6  7  8  9  10  11  12  13  14  15  26  29  33  34 0
 6-311+G(2d,p)
 ****
 36  38  39  40  41 0
 6-311+G(2d,p)
 ****
 1  2  3  4  5  16  17  18  19  20  21  22  23  24  25 0
 3-21G
 ****
 27  28  30  31  32  35  37  42  43  44  45  46  47 0
 3-21G
 ****
 48  49 0
 3-21G
 ****


