%nproc=1
%NoSave
%Mem=1900MB
#P OB98/GEN NMR

erre ene a

0 1
  C     -254.357     -36.856    -193.492
  O     -254.630     -38.089    -192.858
  P     -253.521     -39.216    -192.613
  C     -252.645     -40.604    -190.595
  O     -253.654     -39.732    -191.094
  C     -252.872     -41.006    -189.131
  O     -252.945     -39.818    -188.314
  C     -254.216     -41.722    -188.979
  O     -254.323     -43.105    -189.256
  C     -254.739     -41.299    -187.612
  O     -254.483     -42.276    -186.600
  C     -253.967     -40.009    -187.319
  N     -257.109     -37.168    -184.524
  C     -256.226     -38.147    -184.114
  N     -256.335     -38.543    -182.827
  N     -255.336     -38.700    -184.902
  C     -255.412     -38.268    -186.188
  C     -256.234     -37.291    -186.708
  C     -257.179     -36.663    -185.817
  O     -258.038     -35.848    -186.160
  N     -256.080     -37.171    -188.065
  C     -255.200     -38.101    -188.375
  N     -254.794     -38.816    -187.274
  O     -252.157     -38.944    -193.161
  O     -254.141     -40.453    -193.447
  H     -254.919     -43.108    -186.866
  H     -253.392     -40.955    -193.822
  H     -257.825     -36.835    -183.891
  H     -254.846     -38.313    -189.379
  H     -253.453     -40.079    -186.351
  H     -255.827     -41.163    -187.638
  H     -257.102     -38.246    -182.236
  H     -254.903     -41.255    -189.697
  H     -255.826     -39.371    -182.538
  H     -252.022     -41.578    -188.744
  H     -251.682     -40.094    -190.713
  H     -252.608     -41.507    -191.214
  P     -255.648     -43.885    -189.703
  C     -256.143     -46.331    -190.285
  O     -255.216     -45.261    -190.396
  O     -256.218     -43.032    -190.933
  O     -256.690     -44.019    -188.634
  H     -257.174     -43.209    -191.044
  H     -255.636     -47.272    -190.509
  H     -256.956     -46.182    -191.005
  H     -256.558     -46.386    -189.275
  H     -255.253     -36.273    -193.539
  H     -253.996     -37.037    -194.483
  H     -253.615     -36.325    -192.934

 3  4  5  6  7  8  9  10  11  12  23  26  30  31 0
 6-311+G(2d,p)
 ****
 33  35  36  37  38 0
 6-311+G(2d,p)
 ****
 1  2  13  14  15  16  17  18  19  20  21  22  24  25 0
 3-21G
 ****
 27  28  29  32  34  39  40  41  42  43  44  45  46  47  48  49 0
 3-21G
 ****


