%nproc=1
%NoSave
%Mem=1900MB
#P OB98/GEN NMR

erre ene a

0 1
  C        5.074    -344.155    -626.808
  O        4.757    -343.437    -627.990
  P        3.543    -342.390    -627.913
  C        2.532    -340.619    -629.530
  O        3.595    -341.509    -629.256
  C        3.011    -339.496    -630.476
  O        3.783    -338.540    -629.725
  C        3.910    -339.966    -631.603
  O        3.160    -340.593    -632.630
  C        4.541    -338.633    -632.001
  O        3.637    -337.879    -632.818
  C        4.733    -337.945    -630.644
  N        9.224    -335.632    -629.722
  C        8.092    -335.200    -630.309
  N        6.940    -335.883    -630.532
  C        7.047    -337.139    -630.081
  C        8.143    -337.737    -629.495
  C        9.281    -336.932    -629.301
  N       10.430    -337.379    -628.713
  N        7.890    -339.055    -629.172
  C        6.641    -339.247    -629.567
  N        6.080    -338.116    -630.105
  O        4.024    -341.361    -626.786
  O        2.207    -342.989    -627.594
  H        4.118    -337.099    -633.152
  H        3.266    -341.025    -626.265
  H        8.092    -334.167    -630.636
  H        6.105    -340.192    -629.486
  H        4.539    -336.866    -630.685
  H        5.473    -338.755    -632.576
  H        4.680    -340.652    -631.230
  H        2.117    -338.986    -630.862
  H        2.170    -340.174    -628.608
  H       11.253    -336.782    -628.756
  H       10.525    -338.372    -628.534
  H        1.709    -341.178    -629.993
  P        3.990    -341.330    -633.798
  C        3.237    -342.099    -636.138
  O        2.839    -341.867    -634.793
  O        4.465    -342.672    -633.058
  O        5.059    -340.510    -634.420
  H        3.731    -343.106    -632.584
  H        2.384    -342.501    -636.684
  H        4.058    -342.819    -636.173
  H        3.539    -341.158    -636.604
  H        5.896    -344.812    -627.000
  H        4.224    -344.727    -626.500
  H        5.341    -343.467    -626.033

 3  4  5  6  7  8  9  10  11  12  22  25  29  30  31  32 0
 6-311+G(2d,p)
 ****
 33  36  37 0
 6-311+G(2d,p)
 ****
 1  2  13  14  15  16  17  18  19  20  21  23  24  26 0
 3-21G
 ****
 27  28  34  35  38  39  40  41  42  43  44  45  46  47  48 0
 3-21G
 ****


