%nproc=1
%NoSave
%Mem=1900MB
#P OB98/GEN NMR

erre ene a

0 1
  C     -365.730    -185.451     119.770
  O     -365.187    -184.180     119.478
  H     -365.350    -185.812     120.730
  H     -366.817    -185.363     119.833
  H     -365.478    -186.162     118.977
  P     -363.590    -184.088     119.331
  C     -363.080    -182.913     121.595
  O     -363.014    -184.111     120.830
  C     -361.758    -182.696     122.321
  O     -361.685    -183.545     123.487
  C     -360.523    -183.029     121.496
  O     -360.167    -181.976     120.614
  C     -359.487    -183.201     122.593
  O     -359.067    -181.908     123.074
  C     -360.295    -183.932     123.671
  N     -357.529    -188.012     125.045
  C     -357.358    -186.692     125.270
  N     -358.139    -185.670     124.864
  C     -359.192    -186.119     124.162
  C     -359.493    -187.435     123.851
  C     -358.607    -188.417     124.336
  N     -358.769    -189.762     124.099
  N     -360.639    -187.508     123.080
  C     -361.036    -186.255     122.963
  N     -360.191    -185.379     123.591
  O     -363.340    -182.576     118.870
  O     -362.966    -185.080     118.406
  H     -358.575    -181.485     122.346
  H     -362.466    -182.495     118.445
  H     -356.476    -186.422     125.844
  H     -361.928    -185.936     122.433
  H     -360.002    -183.641     124.685
  H     -358.588    -183.723     122.258
  H     -360.639    -183.981     120.959
  H     -361.724    -181.653     122.666
  H     -363.888    -183.000     122.328
  H     -357.987    -190.358     124.327
  H     -359.483    -190.055     123.446
  H     -363.290    -182.073     120.928
  P     -359.477    -182.383     119.221
  C     -357.009    -181.710     119.708
  O     -357.962    -182.764     119.579
  O     -359.339    -180.981     118.462
  O     -360.229    -183.392     118.417
  H     -359.328    -181.111     117.493
  H     -356.051    -182.123     119.947
  H     -357.316    -181.045     120.488
  H     -356.945    -181.172     118.785

 6  7  8  9  10  11  12  13  14  15  25  28  32  33  34  35 0
 6-311+G(2d,p)
 ****
 36  39  40 0
 6-311+G(2d,p)
 ****
 1  2  3  4  5  16  17  18  19  20  21  22  23  24 0
 3-21G
 ****
 26  27  29  30  31  37  38  41  42  43  44  45  46  47 0
 3-21G
 ****
 48 0
 3-21G
 ****


