%nproc=1
%NoSave
%Mem=1900MB
#P OB98/GEN NMR

erre ene a

0 1
  C      -84.268     136.942     268.494
  O      -84.048     138.071     269.314
  H      -84.384     136.062     269.133
  H      -83.410     136.789     267.834
  H      -85.179     137.071     267.901
  P      -84.038     139.503     268.583
  C      -82.126     141.225     268.054
  O      -82.494     139.936     268.517
  C      -80.732     141.191     267.433
  O      -79.768     140.885     268.469
  C      -80.571     140.150     266.324
  O      -79.720     140.689     265.312
  C      -79.882     138.991     267.020
  O      -79.170     138.165     266.100
  C      -79.015     139.725     268.054
  N      -78.673     138.875     269.195
  C      -77.730     137.869     268.970
  O      -77.245     137.716     267.845
  N      -77.389     137.033     270.001
  C      -77.991     137.146     271.147
  N      -77.625     136.275     272.123
  C      -79.030     138.159     271.414
  C      -79.311     138.989     270.411
  O      -84.654     140.451     269.716
  O      -84.770     139.533     267.284
  H      -78.764     137.427     266.607
  H      -84.322     140.257     270.608
  H      -79.515     138.204     272.378
  H      -80.057     139.767     270.524
  H      -78.086     140.078     267.596
  H      -80.626     138.362     267.530
  H      -81.519     139.841     265.880
  H      -80.490     142.198     267.067
  H      -76.923     135.583     271.894
  H      -82.142     141.943     268.880
  H      -78.064     136.238     273.032
  H      -82.867     141.544     267.312
  P      -80.319     140.976     263.855
  C      -80.211     139.750     261.586
  O      -80.272     139.616     262.998
  O      -79.782     142.180     263.156
  O      -81.892     141.142     264.141
  H      -82.229     141.855     263.565
  H      -80.185     138.779     261.136
  H      -79.328     140.292     261.317
  H      -81.074     140.280     261.240

 6  7  8  9  10  11  12  13  14  15  16  26  30  31  32  33  35 0
 6-311+G(2d,p)
 ****
 37  38 0
 6-311+G(2d,p)
 ****
 1  2  3  4  5  17  18  19  20  21  22  23  24  25 0
 3-21G
 ****
 27  28  29  34  36  39  40  41  42  43  44  45  46 0
 3-21G
 ****


