%nproc=1
%NoSave
%Mem=1900MB
#P OB98/GEN NMR

erre ene a

0 1
  C      159.912     281.671     440.316
  O      159.660     280.625     439.398
  P      158.199     280.403     438.790
  C      158.731     280.774     436.314
  O      158.083     281.302     437.464
  C      158.344     281.549     435.054
  O      159.207     281.129     433.957
  C      156.894     281.354     434.596
  O      156.470     282.593     434.018
  C      157.027     280.303     433.502
  O      155.918     280.289     432.612
  C      158.342     280.736     432.868
  N      157.823     277.564     428.893
  C      156.981     278.470     429.434
  N      157.186     279.261     430.508
  C      158.401     279.044     431.034
  C      159.352     278.130     430.613
  C      159.031     277.371     429.474
  N      159.888     276.464     428.888
  N      160.454     278.159     431.449
  C      160.167     279.074     432.354
  N      158.968     279.679     432.103
  O      157.072     280.575     439.757
  O      158.237     278.913     438.215
  H      155.920     281.121     432.106
  H      157.725     278.313     438.800
  H      156.025     278.588     428.932
  H      160.789     279.337     433.200
  H      158.216     281.601     432.204
  H      157.111     279.308     433.957
  H      156.212     281.045     435.394
  H      158.554     282.611     435.230
  H      158.425     279.732     436.200
  H      159.613     276.079     428.003
  H      160.878     276.496     429.133
  H      159.820     280.800     436.455
  P      154.907     282.957     433.969
  C      155.233     283.329     436.481
  O      154.367     282.841     435.470
  O      154.112     282.225     432.942
  O      154.904     284.541     433.707
  H      154.020     284.813     433.382
  H      155.989     282.575     436.706
  H      154.646     283.530     437.388
  H      155.721     284.256     436.169
  H      160.942     281.653     440.604
  H      159.298     281.541     441.182
  H      159.687     282.611     439.857

 3  4  5  6  7  8  9  10  11  12  22  25  29  30  31  32 0
 6-311+G(2d,p)
 ****
 33  36  37 0
 6-311+G(2d,p)
 ****
 1  2  13  14  15  16  17  18  19  20  21  23  24  26 0
 3-21G
 ****
 27  28  34  35  38  39  40  41  42  43  44  45  46  47  48 0
 3-21G
 ****


