%nproc=1
%NoSave
%Mem=1900MB
#P OB98/GEN NMR

erre ene a

0 1
  C     -451.025     169.540     457.587
  O     -449.659     169.823     457.269
  P     -448.807     170.757     458.251
  C     -446.738     169.235     458.514
  O     -447.242     170.470     458.025
  C     -445.366     168.917     457.909
  O     -445.533     168.335     456.583
  C     -444.469     170.160     457.756
  O     -443.166     169.983     458.310
  C     -444.520     170.465     456.270
  O     -443.401     171.208     455.820
  C     -444.726     169.078     455.649
  N     -445.336     169.151     454.313
  C     -444.477     169.136     453.231
  O     -443.251     169.133     453.333
  N     -445.067     169.182     451.995
  C     -446.404     169.320     451.752
  O     -446.880     169.411     450.630
  C     -447.268     169.404     452.950
  C     -446.698     169.311     454.154
  O     -449.242     170.768     459.680
  O     -448.982     172.219     457.601
  H     -443.506     171.371     454.851
  H     -449.063     172.864     458.329
  H     -444.456     169.150     451.192
  H     -448.327     169.536     452.792
  H     -447.306     169.377     455.049
  H     -443.772     168.556     455.530
  H     -445.410     171.072     456.070
  H     -444.881     171.012     458.315
  H     -444.884     168.174     458.549
  H     -447.430     168.429     458.255
  H     -446.698     169.267     459.603
  P     -442.660     170.639     459.675
  C     -441.718     168.467     460.733
  O     -441.445     169.772     460.241
  O     -443.727     170.955     460.683
  O     -441.949     171.982     459.191
  H     -442.161     172.708     459.806
  H     -440.909     168.160     461.400
  H     -441.771     167.762     459.893
  H     -442.670     168.437     461.293
  H     -451.443     168.907     456.833
  H     -451.578     170.455     457.631
  H     -451.076     169.047     458.535

 3  4  5  6  7  8  9  10  11  12  13  23  28  29  30  31  32 0
 6-311+G(2d,p)
 ****
 33  34 0
 6-311+G(2d,p)
 ****
 1  2  14  15  16  17  18  19  20  21  22  24  25  26  27 0
 3-21G
 ****
 35  36  37  38  39  40  41  42  43  44  45 0
 3-21G
 ****


