%nproc=1
%NoSave
%Mem=1900MB
#P OB98/GEN NMR

erre ene a

0 1
  C     -477.164    -145.504    -285.467
  O     -478.081    -144.568    -286.052
  P     -477.923    -143.026    -285.635
  C     -477.013    -142.373    -288.002
  O     -476.787    -142.431    -286.602
  C     -475.694    -142.101    -288.736
  O     -474.725    -143.141    -288.434
  C     -475.816    -142.079    -290.251
  O     -476.431    -140.891    -290.708
  C     -474.354    -142.245    -290.657
  O     -473.667    -140.985    -290.570
  C     -473.831    -143.211    -289.573
  N     -473.678    -144.578    -290.050
  C     -472.802    -144.761    -291.118
  O     -472.207    -143.831    -291.656
  N     -472.654    -146.046    -291.556
  C     -473.304    -147.140    -291.065
  O     -473.125    -148.274    -291.492
  C     -474.254    -146.884    -289.968
  C     -474.391    -145.633    -289.518
  O     -477.202    -143.163    -284.213
  O     -479.223    -142.287    -285.621
  H     -476.585    -143.907    -284.171
  H     -472.754    -141.155    -290.885
  H     -472.017    -146.198    -292.322
  H     -474.806    -147.723    -289.568
  H     -475.093    -145.423    -288.713
  H     -472.850    -142.870    -289.210
  H     -474.247    -142.608    -291.681
  H     -476.395    -142.951    -290.589
  H     -475.298    -141.145    -288.368
  H     -477.721    -141.577    -288.236
  H     -477.459    -143.318    -288.334
  P     -478.037    -140.874    -290.754
  C     -478.283    -138.922    -289.032
  O     -478.534    -140.272    -289.364
  O     -478.366    -142.437    -290.638
  O     -478.596    -140.214    -291.982
  H     -477.836    -142.890    -289.968
  H     -478.974    -138.613    -288.243
  H     -478.430    -138.270    -289.903
  H     -477.255    -138.814    -288.668
  H     -477.380    -146.488    -285.828
  H     -477.266    -145.485    -284.402
  H     -476.163    -145.237    -285.735

 3  4  5  6  7  8  9  10  11  12  13  24  28  29  30  31  32 0
 6-311+G(2d,p)
 ****
 33  34 0
 6-311+G(2d,p)
 ****
 1  2  14  15  16  17  18  19  20  21  22  23  25  26  27 0
 3-21G
 ****
 35  36  37  38  39  40  41  42  43  44  45 0
 3-21G
 ****


