%nproc=1
%NoSave
%Mem=1900MB
#P OB98/GEN NMR

erre ene a

0 1
  C     -197.051      98.407    -262.722
  O     -197.199      99.678    -263.328
  P     -197.853     100.905    -262.536
  C     -195.532     101.515    -261.625
  O     -196.895     101.261    -261.300
  C     -195.248     103.016    -261.728
  O     -195.761     103.679    -260.532
  C     -193.755     103.366    -261.850
  O     -193.668     104.480    -262.753
  C     -193.379     103.789    -260.450
  O     -192.222     104.613    -260.420
  C     -194.676     104.468    -259.992
  N     -194.770     104.568    -258.541
  C     -195.382     105.719    -258.025
  O     -195.697     106.641    -258.776
  N     -195.618     105.791    -256.671
  C     -195.104     104.887    -255.890
  N     -195.408     104.955    -254.564
  C     -194.237     103.791    -256.378
  C     -194.152     103.673    -257.704
  O     -199.293     100.733    -262.178
  O     -197.656     102.158    -263.521
  H     -198.521     102.595    -263.659
  H     -192.480     105.532    -260.658
  H     -193.733     103.140    -255.686
  H     -193.556     102.887    -258.163
  H     -194.759     105.472    -260.424
  H     -193.177     102.897    -259.837
  H     -193.160     102.533    -262.245
  H     -195.809     103.416    -262.580
  H     -196.040     105.693    -254.268
  H     -195.323     101.049    -262.594
  H     -195.333     104.145    -253.945
  H     -194.882     101.051    -260.883
  P     -192.261     104.751    -263.490
  C     -193.165     104.073    -265.827
  O     -192.209     103.846    -264.811
  O     -191.238     103.981    -262.512
  O     -191.844     106.178    -263.627
  H     -190.350     104.382    -262.604
  H     -193.026     103.322    -266.614
  H     -193.028     105.070    -266.260
  H     -194.181     103.980    -265.428
  H     -196.595      97.732    -263.416
  H     -198.013      98.033    -262.439
  H     -196.433      98.496    -261.853

 3  4  5  6  7  8  9  10  11  12  13  24  27  28  29  30  32 0
 6-311+G(2d,p)
 ****
 34  35 0
 6-311+G(2d,p)
 ****
 1  2  14  15  16  17  18  19  20  21  22  23  25  26 0
 3-21G
 ****
 31  33  36  37  38  39  40  41  42  43  44  45  46 0
 3-21G
 ****


