%nproc=1
%NoSave
%Mem=1900MB
#P OB98/GEN NMR

erre ene a

0 1
  C      394.707    -301.218    -646.281
  O      394.702    -300.143    -645.359
  H      394.306    -302.106    -645.785
  H      395.731    -301.426    -646.608
  H      394.081    -300.978    -647.145
  P      395.244    -298.736    -645.904
  C      393.055    -297.648    -644.994
  O      393.952    -297.806    -646.085
  C      392.700    -296.170    -644.805
  O      393.861    -295.471    -644.271
  C      392.310    -295.451    -646.108
  O      391.397    -294.393    -645.772
  C      393.641    -294.860    -646.543
  O      393.459    -293.889    -647.548
  C      394.165    -294.395    -645.188
  N      397.687    -290.705    -644.899
  C      396.343    -290.670    -644.807
  N      395.472    -291.694    -644.883
  C      396.124    -292.860    -645.050
  C      397.487    -293.055    -645.150
  C      398.293    -291.905    -645.073
  N      399.661    -291.934    -645.172
  N      397.780    -294.396    -645.321
  C      396.609    -294.998    -645.319
  N      395.578    -294.109    -645.169
  O      395.689    -299.068    -647.404
  O      396.352    -298.124    -645.111
  H      394.288    -293.760    -648.059
  H      396.647    -299.260    -647.432
  H      395.906    -289.685    -644.662
  H      396.451    -296.063    -645.437
  H      393.638    -293.501    -644.832
  H      394.289    -295.632    -646.971
  H      391.846    -296.112    -646.849
  H      391.906    -296.087    -644.050
  H      393.541    -298.032    -644.089
  H      392.145    -298.221    -645.188
  H      400.167    -291.064    -645.127
  H      400.127    -292.819    -645.322
  P      390.060    -294.205    -646.642
  C      388.674    -295.316    -644.719
  O      388.951    -295.236    -646.113
  O      390.482    -294.866    -648.046
  O      389.603    -292.795    -646.837
  H      389.967    -294.450    -648.767
  H      387.914    -296.049    -644.548
  H      388.336    -294.364    -644.367
  H      389.564    -295.595    -644.194

 6  7  8  9  10  11  12  13  14  15  25  28  32  33  34  35 0
 6-311+G(2d,p)
 ****
 36  37  40 0
 6-311+G(2d,p)
 ****
 1  2  3  4  5  16  17  18  19  20  21  22  23  24 0
 3-21G
 ****
 26  27  29  30  31  38  39 41  42  43  44  45  46  47  48 0
 3-21G
 ****


