%nproc=1
%NoSave
%Mem=1900MB
#P OB98/GEN NMR

erre ene a

0 1
  C     -355.423     405.216     714.173
  O     -356.276     406.348     714.370
  P     -357.852     406.257     714.045
  C     -357.733     406.683     711.520
  O     -358.053     405.736     712.538
  C     -358.296     406.309     710.140
  O     -358.154     407.412     709.205
  C     -357.646     405.082     709.486
  O     -358.686     404.434     708.731
  C     -356.614     405.705     708.572
  O     -356.169     404.813     707.552
  C     -357.375     406.947     708.072
  N     -356.476     407.991     707.569
  C     -355.990     407.831     706.274
  O     -356.288     406.829     705.625
  N     -355.171     408.796     705.749
  C     -354.769     409.775     706.509
  N     -353.933     410.686     705.936
  C     -355.178     409.946     707.915
  C     -356.028     409.028     708.372
  O     -358.632     407.483     714.383
  O     -358.351     405.015     714.934
  H     -356.921     404.621     706.957
  H     -359.274     405.155     715.192
  H     -354.797     410.750     708.505
  H     -356.403     409.059     709.396
  H     -358.076     406.683     707.281
  H     -355.727     406.005     709.156
  H     -357.186     404.391     710.207
  H     -359.391     406.132     710.255
  H     -353.651     410.528     704.978
  H     -356.644     406.779     711.461
  H     -353.468     411.420     706.458
  H     -358.119     407.668     711.826
  P     -359.389     403.088     709.225
  C     -357.670     401.401     708.346
  O     -358.216     402.019     709.493
  O     -360.496     402.601     708.362
  O     -359.924     403.421     710.713
  H     -360.608     402.775     710.971
  H     -356.756     400.866     708.612
  H     -357.412     402.145     707.579
  H     -358.407     400.685     707.934
  H     -354.420     405.474     714.443
  H     -355.451     404.923     713.144
  H     -355.760     404.405     714.784

 3  4  5  6  7  8  9  10  11  12  13  23  27  28  29  30  32 0
 6-311+G(2d,p)
 ****
 34  35 0
 6-311+G(2d,p)
 ****
 1  2  14  15  16  17  18  19  20  21  22  24  25  26 0
 3-21G
 ****
 31  33  36  37  38  39  40  41  42  43  44  45  46 0
 3-21G
 ****


