%nproc=1
%NoSave
%Mem=1900MB
#P OB98/GEN NMR

erre ene a

0 1
  C     -210.840      17.168      79.259
  O     -210.931      17.726      80.577
  P     -210.921      16.715      81.829
  C     -212.201      18.478      83.271
  O     -211.093      17.590      83.177
  C     -212.016      19.418      84.454
  O     -211.892      18.702      85.707
  C     -210.771      20.296      84.361
  O     -210.993      21.448      83.552
  C     -210.585      20.719      85.814
  O     -211.476      21.793      86.122
  C     -210.985      19.449      86.569
  N     -206.993      18.965      89.653
  C     -207.973      19.951      89.596
  N     -207.859      20.965      90.486
  N     -208.940      19.962      88.731
  C     -208.940      18.872      87.907
  C     -208.040      17.832      87.877
  C     -206.951      17.852      88.831
  O     -206.056      17.010      88.916
  N     -208.355      16.931      86.892
  C     -209.460      17.414      86.347
  N     -209.854      18.605      86.919
  O     -209.383      16.256      81.903
  O     -211.840      15.550      81.691
  H     -211.219      22.136      87.007
  H     -209.327      15.368      82.293
  H     -206.264      19.016      90.338
  H     -210.016      16.944      85.542
  H     -211.520      19.658      87.504
  H     -209.567      21.077      86.016
  H     -207.164      21.001      91.223
  H     -209.900      19.715      84.029
  H     -208.573      21.679      90.477
  H     -212.905      20.087      84.520
  H     -213.141      17.909      83.391
  H     -212.314      19.025      82.327
  P     -209.983      21.718      82.335
  C     -209.668      24.283      82.620
  O     -210.239      23.233      81.871
  O     -210.603      20.828      81.148
  O     -208.553      21.347      82.610
  H     -209.899      20.514      80.561
  H     -209.807      25.216      82.072
  H     -208.598      24.115      82.767
  H     -210.171      24.369      83.596
  H     -210.859      17.956      78.536
  H     -211.668      16.511      79.092
  H     -209.926      16.620      79.166

 3  4  5  6  7  8  9  10  11  12  23  26  30  31 0
 6-311+G(2d,p)
 ****
 33  35  36  37  38 0
 6-311+G(2d,p)
 ****
 1  2  13  14  15  16  17  18  19  20  21  22  24  25 0
 3-21G
 ****
 27  28  29  32  34  39  40  41  42  43  44  45  46  47  48  49 0
 3-21G
 ****


