%nproc=1
%NoSave
%Mem=1900MB
#P OB98/GEN NMR

erre ene a

0 1
  C     -166.111    -375.282      52.980
  O     -164.690    -375.165      52.838
  P     -163.745    -376.406      52.481
  C     -162.379    -376.386      54.667
  O     -163.264    -377.130      53.831
  C     -161.795    -377.263      55.781
  O     -162.847    -377.852      56.574
  C     -160.955    -378.444      55.302
  O     -159.667    -378.013      54.867
  C     -160.939    -379.329      56.537
  O     -159.943    -378.893      57.474
  C     -162.364    -379.104      57.103
  N     -163.270    -380.199      56.800
  C     -163.268    -381.280      57.692
  O     -162.494    -381.291      58.643
  N     -164.137    -382.318      57.464
  C     -164.875    -382.327      56.401
  N     -165.723    -383.386      56.231
  C     -164.844    -381.253      55.378
  C     -164.022    -380.237      55.643
  O     -162.628    -376.073      51.547
  O     -164.726    -377.492      51.810
  H     -160.133    -377.947      57.660
  H     -164.222    -378.021      51.149
  H     -165.454    -381.307      54.492
  H     -163.932    -379.398      54.955
  H     -162.323    -378.966      58.192
  H     -160.727    -380.382      56.309
  H     -161.473    -378.959      54.483
  H     -161.206    -376.611      56.442
  H     -165.728    -384.096      56.944
  H     -162.940    -375.565      55.119
  H     -166.343    -383.482      55.431
  H     -161.573    -375.975      54.045
  P     -159.414    -377.713      53.314
  C     -157.400    -379.214      52.745
  O     -158.811    -379.050      52.656
  O     -158.660    -376.453      53.019
  O     -160.887    -377.662      52.685
  H     -160.891    -377.029      51.940
  H     -157.176    -380.282      52.657
  H     -157.029    -378.858      53.716
  H     -156.924    -378.657      51.943
  H     -166.526    -374.325      53.219
  H     -166.335    -375.974      53.765
  H     -166.533    -375.635      52.062

 3  4  5  6  7  8  9  10  11  12  13  23  27  28  29  30  32 0
 6-311+G(2d,p)
 ****
 34  35 0
 6-311+G(2d,p)
 ****
 1  2  14  15  16  17  18  19  20  21  22  24  25  26 0
 3-21G
 ****
 31  33  36  37  38  39  40  41  42  43  44  45  46 0
 3-21G
 ****


