%nproc=1
%NoSave
%Mem=1900MB
#P OB98/GEN NMR

erre ene a

0 1
  C      578.379    -289.108    -216.846
  O      577.523    -288.625    -217.865
  H      577.813    -289.252    -215.917
  H      578.790    -290.071    -217.161
  H      579.198    -288.407    -216.677
  P      576.815    -287.208    -217.605
  C      576.627    -286.519    -220.104
  O      575.945    -286.908    -218.923
  C      575.638    -286.436    -221.263
  O      575.363    -287.767    -221.770
  C      574.281    -285.847    -220.892
  O      574.310    -284.429    -220.863
  C      573.432    -286.362    -222.044
  O      573.681    -285.578    -223.226
  C      573.978    -287.783    -222.221
  N      569.383    -289.909    -221.433
  C      569.791    -288.913    -222.243
  N      571.025    -288.400    -222.397
  C      571.896    -289.033    -221.585
  C      571.635    -290.061    -220.704
  C      570.301    -290.513    -220.637
  N      569.884    -291.524    -219.802
  N      572.778    -290.428    -220.018
  C      573.722    -289.655    -220.514
  N      573.243    -288.786    -221.460
  O      578.026    -286.157    -217.721
  O      576.070    -287.078    -216.318
  H      573.345    -286.105    -223.978
  H      577.785    -285.325    -217.274
  H      569.011    -288.459    -222.863
  H      574.767    -289.676    -220.217
  H      573.974    -288.109    -223.269
  H      572.354    -286.304    -221.835
  H      573.906    -286.259    -219.952
  H      576.107    -285.866    -222.073
  H      577.399    -287.260    -220.335
  H      568.885    -291.640    -219.698
  H      570.520    -291.867    -219.107
  H      577.104    -285.544    -219.943
  P      573.535    -283.703    -219.660
  C      575.584    -282.638    -218.452
  O      574.424    -282.428    -219.271
  O      573.745    -284.703    -218.432
  O      572.085    -283.425    -219.922
  H      573.021    -284.621    -217.783
  H      576.072    -281.702    -218.278
  H      576.257    -283.304    -218.951
  H      575.288    -283.065    -217.517

 6  7  8  9  10  11  12  13  14  15  25  28  32  33  34  35 0
 6-311+G(2d,p)
 ****
 36  39  40 0
 6-311+G(2d,p)
 ****
 1  2  3  4  5  16  17  18  19  20  21  22  23  24 0
 3-21G
 ****
 26  27  29  30  31  37  38  41  42  43  44  45  46  47 0
 3-21G
 ****
 48 0
 3-21G
 ****


