%nproc=1
%NoSave
%Mem=1900MB
#P OB98/GEN NMR

erre ene a

0 1
  C     -219.723     585.715     108.249
  O     -220.436     584.497     108.157
  P     -219.776     583.214     107.462
  C     -219.536     582.300     105.079
  O     -220.269     583.152     105.934
  C     -220.178     582.231     103.688
  O     -221.406     581.440     103.763
  C     -220.537     583.596     103.081
  O     -220.262     583.520     101.676
  C     -222.032     583.694     103.333
  O     -222.662     584.615     102.451
  C     -222.454     582.234     103.173
  N     -223.739     581.956     103.783
  C     -224.851     582.620     103.252
  O     -224.698     583.499     102.406
  N     -226.103     582.283     103.716
  C     -226.207     581.494     104.744
  N     -227.467     581.135     105.129
  C     -225.048     580.976     105.485
  C     -223.847     581.202     104.933
  O     -219.950     581.929     108.213
  O     -218.219     583.587     107.328
  H     -217.684     582.876     107.739
  H     -222.256     585.493     102.563
  H     -225.185     580.428     106.403
  H     -222.935     580.840     105.387
  H     -222.496     581.966     102.105
  H     -222.218     584.039     104.355
  H     -219.955     584.414     103.524
  H     -219.495     581.695     103.026
  H     -228.240     581.478     104.574
  H     -219.530     581.306     105.519
  H     -227.643     580.303     105.696
  H     -218.498     582.648     105.000
  P     -219.575     584.795     100.970
  C     -220.423     586.567      99.265
  O     -220.749     585.678     100.304
  O     -218.907     584.113      99.673
  O     -218.540     585.519     101.758
  H     -218.154     584.673      99.383
  H     -221.308     587.136      98.997
  H     -220.072     586.018      98.387
  H     -219.646     587.277      99.595
  H     -220.329     586.446     108.742
  H     -219.477     586.060     107.266
  H     -218.824     585.561     108.808

 3  4  5  6  7  8  9  10  11  12  13  24  27  28  29  30  32 0
 6-311+G(2d,p)
 ****
 34  35 0
 6-311+G(2d,p)
 ****
 1  2  14  15  16  17  18  19  20  21  22  23  25  26 0
 3-21G
 ****
 31  33  36  37  38  39  40  41  42  43  44  45  46 0
 3-21G
 ****


