%nproc=1
%NoSave
%Mem=1900MB
#P OB98/GEN NMR

erre ene a

0 1
  C     -324.500    -115.144      30.726
  O     -325.364    -116.181      31.157
  P     -326.161    -115.939      32.531
  C     -325.342    -115.770      35.005
  O     -325.150    -116.321      33.712
  C     -324.001    -115.700      35.739
  O     -323.307    -114.481      35.399
  C     -324.119    -115.714      37.257
  O     -324.278    -117.040      37.726
  C     -322.800    -115.068      37.668
  O     -321.725    -116.028      37.635
  C     -322.616    -113.997      36.585
  N     -321.783    -109.905      39.431
  C     -321.146    -111.130      39.430
  N     -320.107    -111.268      40.285
  N     -321.492    -112.130      38.662
  C     -322.556    -111.852      37.870
  C     -323.278    -110.686      37.791
  C     -322.850    -109.572      38.609
  O     -323.316    -108.438      38.573
  N     -324.303    -110.789      36.889
  C     -324.180    -112.006      36.401
  N     -323.123    -112.686      36.950
  O     -327.236    -117.122      32.538
  O     -326.792    -114.590      32.671
  H     -322.026    -116.861      38.044
  H     -328.105    -116.801      32.230
  H     -321.460    -109.167      40.031
  H     -324.813    -112.432      35.640
  H     -321.563    -113.865      36.309
  H     -322.835    -114.673      38.688
  H     -319.801    -110.554      40.921
  H     -324.954    -115.083      37.583
  H     -319.634    -112.164      40.300
  H     -323.384    -116.540      35.389
  H     -326.028    -116.409      35.569
  H     -325.785    -114.771      34.910
  P     -324.541    -117.241      39.299
  C     -323.177    -116.841      41.469
  O     -323.172    -116.902      40.054
  O     -324.681    -118.830      39.447
  O     -325.752    -116.539      39.815
  H     -325.348    -119.035      40.128
  H     -322.189    -117.129      41.835
  H     -323.927    -117.510      41.902
  H     -323.388    -115.816      41.783
  H     -324.033    -115.428      29.806
  H     -323.749    -114.974      31.469
  H     -325.065    -114.248      30.578

 3  4  5  6  7  8  9  10  11  12  23  26  30  31 0
 6-311+G(2d,p)
 ****
 33  35  36  37  38 0
 6-311+G(2d,p)
 ****
 1  2  13  14  15  16  17  18  19  20  21  22  24  25 0
 3-21G
 ****
 27  28  29  32  34  39  40  41  42  43  44  45  46  47  48  49 0
 3-21G
 ****


