%nproc=1
%NoSave
%Mem=1900MB
#P OB98/GEN NMR

erre ene a

0 1
  C      189.914    -240.524     582.586
  O      189.365    -240.584     581.283
  H      190.983    -240.749     582.528
  H      189.435    -241.268     583.229
  H      189.789    -239.524     583.016
  P      187.840    -240.142     581.066
  C      185.795    -240.495     582.601
  O      186.944    -241.087     582.001
  C      185.013    -241.556     583.374
  O      185.776    -242.010     584.513
  C      183.689    -241.054     583.933
  O      182.705    -240.967     582.923
  C      183.412    -242.102     585.002
  O      182.850    -243.289     584.420
  C      184.831    -242.377     585.548
  N      185.109    -241.665     586.795
  C      184.253    -241.930     587.861
  O      183.289    -242.695     587.780
  N      184.527    -241.265     589.028
  C      185.478    -240.298     589.189
  O      185.624    -239.665     590.233
  C      186.334    -240.041     588.025
  C      186.115    -240.722     586.897
  O      187.392    -240.051     579.647
  O      187.750    -238.721     581.801
  H      182.063    -243.000     583.915
  H      187.732    -238.013     581.131
  H      183.912    -241.436     589.804
  H      187.108    -239.288     588.121
  H      186.732    -240.541     586.027
  H      184.972    -243.453     585.724
  H      182.714    -241.748     585.758
  H      183.832    -240.084     584.426
  H      184.854    -242.421     582.713
  H      185.163    -240.079     581.810
  H      186.117    -239.683     583.262
  P      181.448    -239.991     583.117
  C      179.551    -239.700     584.825
  O      180.565    -240.565     584.330
  O      180.683    -239.681     581.869
  O      182.091    -238.660     583.731
  H      181.920    -237.910     583.130
  H      179.030    -240.183     585.625
  H      178.863    -239.471     584.039
  H      179.997    -238.796     585.184

 6  7  8  9  10  11  12  13  14  15  16  26  31  32  33  34  35 0
 6-311+G(2d,p)
 ****
 36  37 0
 6-311+G(2d,p)
 ****
 1  2  3  4  5  17  18  19  20  21  22  23  24  25 0
 3-21G
 ****
 27  28  29  30  38  39  40  41  42  43  44  45 0
 3-21G
 ****


