%nproc=1
%NoSave
%Mem=1900MB
#P OB98/GEN NMR

erre ene a

0 1
  C     -463.979     137.260    -896.821
  O     -464.946     138.127    -896.268
  P     -465.778     139.129    -897.207
  C     -468.021     137.870    -897.295
  O     -467.327     138.994    -896.772
  C     -469.499     137.941    -896.905
  O     -469.677     137.649    -895.492
  C     -470.119     139.322    -897.082
  O     -470.237     139.819    -898.398
  C     -471.397     139.173    -896.272
  O     -472.412     138.512    -897.027
  C     -470.915     138.290    -895.098
  N     -470.765     139.062    -893.872
  C     -471.941     139.466    -893.257
  O     -473.061     139.243    -893.697
  N     -471.792     140.223    -892.108
  C     -470.603     140.622    -891.585
  O     -470.542     141.325    -890.575
  C     -469.394     140.157    -892.269
  C     -469.521     139.408    -893.356
  O     -465.533     138.964    -898.670
  O     -465.388     140.579    -896.634
  H     -473.197     138.444    -896.453
  H     -465.618     140.712    -895.697
  H     -472.631     140.551    -891.672
  H     -468.434     140.430    -891.843
  H     -468.641     139.055    -893.893
  H     -471.641     137.487    -894.919
  H     -471.802     140.153    -895.976
  H     -469.482     140.041    -896.554
  H     -470.042     137.174    -897.466
  H     -467.588     136.952    -896.893
  H     -467.894     137.839    -898.386
  P     -470.030     141.361    -898.780
  C     -467.455     141.550    -898.770
  O     -468.632     141.506    -899.540
  O     -470.358     142.373    -897.733
  O     -471.072     141.519    -900.000
  H     -471.430     142.447    -899.990
  H     -466.596     141.716    -899.440
  H     -467.305     140.614    -898.230
  H     -467.472     142.387    -898.059
  H     -463.536     136.676    -896.041
  H     -463.221     137.836    -897.309
  H     -464.447     136.611    -897.531

 3  4  5  6  7  8  9  10  11  12  13  23  28  29  30  31  32 0
 6-311+G(2d,p)
 ****
 33  34 0
 6-311+G(2d,p)
 ****
 1  2  14  15  16  17  18  19  20  21  22  24  25  26  27 0
 3-21G
 ****
 35  36  37  38  39  40  41  42  43  44  45 0
 3-21G
 ****


