%nproc=1
%NoSave
%Mem=1900MB
#P OB98/GEN NMR

erre ene a

0 1
  C      -51.224    -192.375     317.585
  O      -51.901    -193.614     317.430
  H      -51.544    -191.705     316.786
  H      -50.144    -192.530     317.506
  H      -51.468    -191.929     318.549
  P      -51.570    -194.740     318.524
  C      -49.858    -195.884     316.929
  O      -50.094    -195.275     318.187
  C      -48.407    -196.401     316.846
  O      -48.206    -197.378     317.924
  C      -48.073    -197.123     315.525
  O      -46.672    -196.943     315.274
  C      -48.360    -198.575     315.886
  O      -47.813    -199.448     314.918
  C      -47.769    -198.601     317.289
  N      -46.882    -203.533     318.355
  C      -46.229    -202.647     317.564
  N      -46.512    -201.343     317.343
  C      -47.596    -200.973     318.052
  C      -48.360    -201.757     318.905
  C      -47.969    -203.109     319.040
  N      -48.638    -204.003     319.840
  N      -49.401    -201.015     319.446
  C      -49.266    -199.811     318.933
  N      -48.193    -199.737     318.084
  O      -52.523    -195.959     318.100
  O      -51.790    -194.342     319.947
  H      -46.840    -199.334     314.872
  H      -53.353    -195.927     318.617
  H      -45.351    -203.041     317.036
  H      -49.899    -198.963     319.138
  H      -46.673    -198.596     317.280
  H      -49.434    -198.764     315.908
  H      -48.646    -196.747     314.672
  H      -47.723    -195.572     317.040
  H      -50.025    -195.136     316.139
  H      -50.551    -196.730     316.782
  H      -48.303    -204.953     319.865
  H      -49.463    -203.701     320.342
  P      -46.182    -195.755     314.312
  C      -45.409    -197.246     312.311
  O      -46.298    -196.243     312.788
  O      -44.598    -195.753     314.547
  O      -46.762    -194.400     314.605
  H      -44.251    -194.864     314.394
  H      -45.622    -197.452     311.283
  H      -45.536    -198.139     312.887
  H      -44.400    -196.902     312.405

 6  7  8  9  10  11  12  13  14  15  25  28  32  33  34  35 0
 6-311+G(2d,p)
 ****
 36  37  40 0
 6-311+G(2d,p)
 ****
 1  2  3  4  5  16  17  18  19  20  21  22  23  24 0
 3-21G
 ****
 26  27  29  30  31  38  39 41  42  43  44  45  46  47  48 0
 3-21G
 ****


