%nproc=1
%NoSave
%Mem=1900MB
#P OB98/GEN NMR

erre ene a

0 1
  C      296.523    -399.096    -891.890
  O      297.445    -399.906    -892.620
  P      297.545    -401.463    -892.250
  C      296.822    -402.329    -894.590
  O      296.554    -402.275    -893.200
  C      295.858    -403.301    -895.290
  O      294.493    -403.097    -894.860
  C      295.852    -403.158    -896.800
  O      296.911    -403.881    -897.410
  C      294.514    -403.822    -897.150
  O      294.665    -405.256    -897.130
  C      293.612    -403.380    -895.980
  N      289.660    -401.628    -898.610
  C      290.172    -402.913    -898.520
  N      289.529    -403.870    -899.230
  N      291.214    -403.224    -897.800
  C      291.746    -402.163    -897.140
  C      291.342    -400.851    -897.160
  C      290.193    -400.515    -897.970
  O      289.699    -399.407    -898.110
  N      292.131    -400.059    -896.360
  C      293.026    -400.895    -895.840
  N      292.834    -402.190    -896.300
  O      296.823    -401.531    -890.820
  O      298.955    -401.996    -892.180
  H      293.799    -405.617    -897.410
  H      297.186    -402.269    -890.300
  H      288.861    -401.436    -899.190
  H      293.795    -400.619    -895.150
  H      292.911    -404.165    -895.670
  H      294.159    -403.548    -898.150
  H      288.700    -403.696    -899.750
  H      295.836    -402.116    -897.110
  H      289.865    -404.831    -899.140
  H      296.169    -404.325    -895.020
  H      297.855    -402.652    -894.750
  H      296.747    -401.312    -895.010
  P      297.769    -403.134    -898.550
  C      299.831    -403.044    -896.950
  O      298.922    -402.325    -897.780
  O      296.768    -401.995    -899.060
  O      298.219    -404.002    -899.660
  H      296.907    -401.798    -900.000
  H      300.637    -402.364    -896.650
  H      300.270    -403.882    -897.510
  H      299.317    -403.415    -896.070
  H      296.571    -398.089    -892.249
  H      296.776    -399.117    -890.850
  H      295.531    -399.475    -892.024

 3  4  5  6  7  8  9  10  11  12  23  26  30  31 0
 6-311+G(2d,p)
 ****
 33  35  36  37  38 0
 6-311+G(2d,p)
 ****
 1  2  13  14  15  16  17  18  19  20  21  22  24  25 0
 3-21G
 ****
 27  28  29  32  34  39  40  41  42  43  44  45  46  47  48  49 0
 3-21G
 ****


