%nproc=1
%NoSave
%Mem=1900MB
#P OB98/GEN NMR

erre ene a

0 1
  C      -99.387     191.130      89.949
  O      -99.532     192.535      90.050
  P      -98.548     193.338      91.029
  C     -100.339     193.185      92.946
  O      -99.002     192.981      92.526
  C     -100.432     194.414      93.856
  O     -101.819     194.843      93.926
  C      -99.950     194.177      95.293
  O      -99.330     195.391      95.738
  C     -101.245     193.934      96.048
  O     -101.122     194.173      97.441
  C     -102.185     194.903      95.321
  N     -103.603     194.579      95.493
  C     -104.283     195.178      96.548
  O     -103.757     195.944      97.356
  N     -105.606     194.839      96.670
  C     -106.282     193.938      95.902
  O     -107.463     193.660      96.069
  C     -105.500     193.302      94.833
  C     -104.222     193.652      94.675
  O      -99.053     194.839      90.815
  O      -97.102     193.113      90.745
  H     -100.015     194.901      90.679
  H     -101.999     194.043      97.847
  H     -106.128     195.291      97.409
  H     -105.996     192.567      94.210
  H     -103.623     193.197      93.893
  H     -102.001     195.929      95.659
  H     -101.556     192.892      95.906
  H      -99.241     193.347      95.368
  H      -99.862     195.230      93.391
  H     -100.683     192.307      93.497
  H     -100.981     193.302      92.063
  P      -97.853     195.299      96.372
  C      -98.700     195.795      98.801
  O      -98.020     194.930      97.922
  O      -97.467     196.858      96.420
  O      -96.878     194.484      95.587
  H      -98.167     197.409      96.808
  H      -98.996     195.234      99.691
  H      -99.598     196.211      98.337
  H      -98.034     196.608      99.102
  H     -100.111     190.745      89.262
  H      -99.537     190.686      90.911
  H      -98.403     190.897      89.598

 3  4  5  6  7  8  9  10  11  12  13  24  28  29  30  31  32 0
 6-311+G(2d,p)
 ****
 33  34 0
 6-311+G(2d,p)
 ****
 1  2  14  15  16  17  18  19  20  21  22  23  25  26  27 0
 3-21G
 ****
 35  36  37  38  39  40  41  42  43  44  45 0
 3-21G
 ****


