%nproc=1
%NoSave
%Mem=1900MB
#P OB98/GEN NMR

erre ene a

0 1
  C     -892.670     477.042     373.331
  O     -892.740     478.219     374.159
  P     -892.180     478.239     375.652
  C     -894.170     477.295     376.972
  O     -892.820     477.047     376.514
  C     -894.520     476.450     378.230
  O     -893.550     476.633     379.309
  C     -895.910     476.760     378.835
  O     -896.370     475.507     379.386
  C     -895.580     477.740     379.916
  O     -896.590     477.865     380.913
  C     -894.270     477.141     380.433
  N     -894.240     480.564     384.287
  C     -895.140     479.605     383.924
  N     -895.060     478.719     382.928
  C     -893.880     478.829     382.243
  C     -892.860     479.766     382.516
  C     -893.110     480.656     383.577
  N     -892.230     481.664     383.897
  N     -891.850     479.615     381.587
  C     -892.250     478.602     380.815
  N     -893.450     478.133     381.163
  O     -892.240     479.580     376.316
  O     -890.630     477.792     375.498
  H     -896.780     476.989     381.269
  H     -890.070     478.377     376.028
  H     -896.030     479.560     384.547
  H     -891.670     478.257     379.977
  H     -894.450     476.288     381.126
  H     -895.420     478.749     379.482
  H     -896.630     477.122     378.088
  H     -894.440     475.397     377.948
  H     -894.860     477.070     376.193
  H     -892.490     482.319     384.622
  H     -891.410     481.829     383.318
  H     -894.240     478.371     377.239
  P     -897.070     474.392     378.477
  C     -899.430     475.339     378.254
  O     -898.200     475.145     377.608
  O     -897.550     473.186     379.222
  O     -895.960     474.001     377.385
  H     -896.180     473.136     376.986
  H     -900.000     474.398     378.286
  H     -900.000     476.080     377.695
  H     -899.280     475.715     379.288
  H     -893.102     477.252     372.375
  H     -893.209     476.245     373.798
  H     -891.647     476.755     373.205

 3  4  5  6  7  8  9  10  11  12  22  25  29  30  31  32 0
 6-311+G(2d,p)
 ****
 33  36  37 0
 6-311+G(2d,p)
 ****
 1  2  13  14  15  16  17  18  19  20  21  23  24  26 0
 3-21G
 ****
 27  28  34  35  38  39  40  41  42  43  44  45  46  47  48 0
 3-21G
 ****


