%nproc=1
%NoSave
%Mem=1900MB
#P OB98/GEN NMR

erre ene a

0 1
  C     -113.433    -896.690     586.039
  O     -114.711    -897.000     586.536
  H     -113.519    -895.870     585.321
  H     -113.009    -897.550     585.530
  H     -112.764    -896.370     586.845
  P     -114.806    -898.070     587.730
  C     -115.026    -896.210     589.542
  O     -114.272    -897.320     589.064
  C     -114.311    -895.570     590.731
  O     -112.927    -895.290     590.363
  C     -114.947    -894.240     591.186
  O     -114.889    -894.190     592.613
  C     -114.027    -893.180     590.595
  O     -114.078    -891.940     591.311
  C     -112.675    -893.900     590.617
  N     -111.764    -893.330     589.635
  C     -110.997    -892.220     590.042
  O     -111.124    -891.770     591.178
  N     -110.143    -891.630     589.141
  C     -110.129    -892.040     587.906
  N     -109.307    -891.390     587.043
  C     -110.969    -893.150     587.416
  C     -111.739    -893.760     588.316
  O     -113.624    -899.090     587.406
  O     -116.127    -898.740     587.882
  H     -115.010    -891.610     591.268
  H     -113.843    -900.000     587.698
  H     -110.948    -893.450     586.371
  H     -112.393    -894.580     588.048
  H     -112.220    -893.820     591.602
  H     -114.341    -892.970     589.560
  H     -115.991    -894.130     590.856
  H     -114.285    -896.290     591.561
  H     -108.756    -890.610     587.408
  H     -116.015    -896.550     589.873
  H     -109.242    -891.590     586.049
  H     -115.157    -895.480     588.730
  P     -116.260    -894.440     593.418
  C     -115.506    -896.580     594.704
  O     -116.363    -896.010     593.721
  O     -117.384    -894.180     592.305
  O     -116.441    -893.540     594.610
  H     -117.858    -893.360     592.483
  H     -115.702    -897.629     594.783
  H     -115.686    -896.112     595.649
  H     -114.486    -896.428     594.419

 6  7  8  9  10  11  12  13  14  15  16  26  30  31  32  33  35 0
 6-311+G(2d,p)
 ****
 37  38 0
 6-311+G(2d,p)
 ****
 1  2  3  4  5  17  18  19  20  21  22  23  24  25 0
 3-21G
 ****
 27  28  29  34  36  39  40  41  42  43  44  45  46 0
 3-21G
 ****


