%nproc=1
%NoSave
%Mem=1900MB
#P OB98/GEN NMR

erre ene a

0 1
  C     -124.634       3.112     -49.469
  O     -125.127       1.868     -49.018
  H     -125.016       3.294     -50.476
  H     -123.541       3.106     -49.505
  H     -124.982       3.917     -48.815
  P     -124.613       1.314     -47.601
  C     -122.959       0.000     -49.103
  O     -123.140       0.748     -47.910
  C     -121.535      -0.546     -49.173
  O     -120.584       0.513     -49.402
  C     -121.050      -1.237     -47.903
  O     -121.619      -2.519     -47.703
  C     -119.559      -1.299     -48.190
  O     -119.295      -2.348     -49.138
  C     -119.316       0.094     -48.823
  N     -118.842       1.085     -47.858
  C     -117.480       1.039     -47.530
  O     -116.741       0.198     -48.042
  N     -116.994       1.925     -46.599
  C     -117.798       2.768     -46.031
  N     -117.273       3.593     -45.081
  C     -119.234       2.863     -46.359
  C     -119.685       1.998     -47.265
  O     -125.526       0.367     -46.891
  O     -124.281       2.631     -46.755
  H     -118.352      -2.285     -49.377
  H     -123.968       2.341     -45.863
  H     -119.862       3.579     -45.849
  H     -120.732       1.994     -47.546
  H     -118.593       0.026     -49.645
  H     -118.955      -1.504     -47.300
  H     -121.210      -0.598     -47.027
  H     -121.483      -1.218     -50.041
  H     -116.296       3.471     -44.853
  H     -123.169       0.658     -49.952
  H     -117.868       4.069     -44.410
  H     -123.654      -0.845     -49.127
  P     -122.161      -2.881     -46.235
  C     -119.995      -4.276     -45.852
  O     -120.881      -3.285     -45.356
  O     -122.916      -4.271     -46.467
  O     -123.038      -1.850     -45.596
  H     -123.869      -4.131     -46.628
  H     -119.200      -4.427     -45.151
  H     -119.589      -3.955     -46.788
  H     -120.528      -5.194     -45.990

 6  7  8  9  10  11  12  13  14  15  16  26  30  31  32  33  35 0
 6-311+G(2d,p)
 ****
 37  38 0
 6-311+G(2d,p)
 ****
 1  2  3  4  5  17  18  19  20  21  22  23  24  25 0
 3-21G
 ****
 27  28  29  34  36  39  40  41  42  43  44  45  46 0
 3-21G
 ****


