%nproc=1
%NoSave
%Mem=1900MB
#P OB98/GEN NMR

erre ene a

0 1
  C      151.806    -432.323    -148.036
  O      151.916    -431.507    -146.883
  P      152.421    -429.998    -147.058
  C      150.236    -428.616    -147.322
  O      151.344    -429.226    -147.964
  C      149.994    -427.218    -147.897
  O      151.262    -426.497    -147.961
  C      149.398    -427.218    -149.313
  O      148.535    -426.077    -149.417
  C      150.621    -427.014    -150.184
  O      150.309    -426.539    -151.483
  C      151.409    -426.027    -149.315
  N      152.815    -425.926    -149.703
  C      153.317    -424.655    -149.959
  O      152.652    -423.623    -149.883
  N      154.620    -424.604    -150.379
  C      155.423    -425.673    -150.646
  O      156.542    -425.562    -151.132
  C      154.837    -426.993    -150.356
  C      153.583    -427.057    -149.903
  O      153.691    -430.147    -148.022
  O      152.767    -429.305    -145.785
  H      149.800    -427.235    -151.938
  H      154.517    -430.112    -147.506
  H      155.004    -423.689    -150.559
  H      155.454    -427.864    -150.537
  H      153.121    -428.018    -149.701
  H      150.947    -425.033    -149.362
  H      151.154    -427.966    -150.292
  H      148.850    -428.133    -149.558
  H      149.342    -426.666    -147.209
  H      150.439    -428.533    -146.255
  H      149.348    -429.243    -147.447
  P      147.130    -426.263    -150.172
  C      145.389    -426.809    -148.302
  O      146.269    -427.288    -149.295
  O      147.587    -427.129    -151.441
  O      146.467    -424.975    -150.534
  H      148.211    -427.835    -151.208
  H      144.935    -425.857    -148.589
  H      145.938    -426.676    -147.364
  H      144.596    -427.545    -148.146
  H      151.459    -433.295    -147.753
  H      152.764    -432.409    -148.505
  H      151.112    -431.881    -148.721

 3  4  5  6  7  8  9  10  11  12  13  23  28  29  30  31  32 0
 6-311+G(2d,p)
 ****
 33  34 0
 6-311+G(2d,p)
 ****
 1  2  14  15  16  17  18  19  20  21  22  24  25  26 0
 3-21G
 ****
 27  35  36  37  38  39  40  41  42  43  44  45 0
 3-21G
 ****


