%nproc=1
%NoSave
%Mem=1900MB
#P OB98/GEN NMR

erre ene a

0 1
  C     -387.742     359.522     -13.368
  O     -387.420     359.258     -12.000
  P     -386.202     358.239     -11.742
  C     -387.478     356.540     -10.248
  O     -386.447     357.522     -10.325
  C     -388.416     356.801      -9.060
  O     -387.744     356.546      -7.800
  C     -388.949     358.244      -9.004
  O     -390.290     358.169      -8.487
  C     -388.049     358.888      -7.969
  O     -388.631     360.091      -7.447
  C     -387.909     357.740      -6.983
  N     -386.671     358.748      -2.188
  C     -387.901     358.769      -2.814
  N     -388.974     359.053      -2.026
  N     -388.075     358.528      -4.092
  C     -386.919     358.222      -4.732
  C     -385.642     358.158      -4.223
  C     -385.462     358.445      -2.817
  O     -384.394     358.439      -2.213
  N     -384.733     357.777      -5.198
  C     -385.466     357.689      -6.300
  N     -386.798     357.892      -6.059
  O     -384.965     359.214     -11.470
  O     -385.948     357.318     -12.887
  H     -389.547     359.872      -7.175
  H     -384.409     359.288     -12.273
  H     -386.587     358.955      -1.198
  H     -385.082     357.455      -7.273
  H     -388.808     357.604      -6.361
  H     -387.078     359.139      -8.426
  H     -388.917     359.199      -1.034
  H     -388.950     358.764      -9.971
  H     -389.893     359.030      -2.454
  H     -389.260     356.099      -9.137
  H     -387.036     355.544     -10.140
  H     -388.022     356.525     -11.190
  P     -391.502     358.370      -9.507
  C     -393.083     359.927      -8.167
  O     -392.835     358.617      -8.646
  O     -391.721     356.897     -10.109
  O     -391.241     359.366     -10.597
  H     -391.926     356.960     -11.065
  H     -394.160     360.051      -8.023
  H     -392.728     360.688      -8.856
  H     -392.587     360.060      -7.201
  H     -388.562     360.208     -13.415
  H     -388.014     358.608     -13.853
  H     -386.892     359.947     -13.859

 3  4  5  6  7  8  9  10  11  12  23  26  30  31 0
 6-311+G(2d,p)
 ****
 33  35  36  37  38 0
 6-311+G(2d,p)
 ****
 1  2  13  14  15  16  17  18  19  20  21  22  24  25 0
 3-21G
 ****
 27  28  29  32  34  39  40  41  42  43  44  45  46  47  48  49 0
 3-21G
 ****


