%nproc=1
%NoSave
%Mem=1900MB
#P OB98/GEN NMR

erre ene a

0 1
  C     -422.046     232.727     278.923
  O     -421.865     231.665     278.007
  H     -423.118     232.843     279.114
  H     -421.667     233.660     278.503
  H     -421.544     232.513     279.870
  P     -420.373     231.194     277.658
  C     -419.736     233.152     276.104
  O     -420.041     231.765     276.195
  C     -419.872     233.622     274.658
  O     -419.540     235.026     274.556
  C     -418.941     232.903     273.686
  O     -419.415     231.603     273.405
  C     -418.963     233.871     272.514
  O     -420.159     233.705     271.730
  C     -418.977     235.240     273.241
  N     -417.648     235.848     273.331
  C     -417.301     236.718     272.301
  O     -418.045     236.979     271.358
  N     -416.042     237.252     272.374
  C     -415.086     236.931     273.300
  O     -413.909     237.259     273.199
  C     -415.534     236.064     274.401
  C     -416.772     235.558     274.358
  O     -420.090     229.741     277.849
  O     -419.459     232.101     278.612
  H     -419.176     231.575     279.382
  H     -420.910     233.857     272.336
  H     -415.759     237.848     271.608
  H     -414.828     235.838     275.190
  H     -417.113     234.893     275.146
  H     -419.639     235.944     272.718
  H     -418.115     233.728     271.840
  H     -417.924     232.867     274.097
  H     -420.920     233.497     274.359
  H     -418.701     233.303     276.443
  H     -420.409     233.711     276.762
  P     -418.595     230.304     273.858
  C     -416.383     230.945     272.728
  O     -417.462     230.020     272.757
  O     -419.433     229.118     274.202
  O     -417.748     230.794     275.126
  H     -417.919     230.189     275.874
  H     -415.691     230.662     271.962
  H     -415.886     230.943     273.676
  H     -416.759     231.926     272.524

 6  7  8  9  10  11  12  13  14  15  16  27  31  32  33  34  35 0
 6-311+G(2d,p)
 ****
 36  37 0
 6-311+G(2d,p)
 ****
 1  2  3  4  5  17  18  19  20  21  22  23  24  25 0
 3-21G
 ****
 26  28  29  30  38  39  40  41  42  43  44  45 0
 3-21G
 ****


