%nproc=1
%NoSave
%Mem=1900MB
#P OB98/GEN NMR

erre ene a

0 1
  C       72.508     -90.239    -529.904
  O       73.388     -89.482    -529.089
  P       74.879     -90.048    -528.892
  C       74.046     -91.445    -526.861
  O       74.978     -90.486    -527.353
  C       74.337     -91.767    -525.398
  O       75.488     -92.624    -525.301
  C       74.660     -90.547    -524.551
  O       73.477     -89.845    -524.220
  C       75.355     -91.190    -523.356
  O       74.402     -91.608    -522.367
  C       76.061     -92.410    -523.991
  N       77.504     -92.244    -524.061
  C       78.259     -93.175    -523.331
  O       77.695     -94.047    -522.671
  N       79.629     -93.061    -523.345
  C       80.188     -92.106    -524.018
  N       81.549     -92.044    -523.995
  C       79.429     -91.096    -524.781
  C       78.103     -91.220    -524.753
  O       75.781     -88.732    -528.968
  O       75.291     -91.079    -529.891
  H       74.929     -92.006    -521.643
  H       76.683     -88.945    -529.271
  H       79.946     -90.316    -525.323
  H       77.465     -90.521    -525.286
  H       75.851     -93.318    -523.413
  H       76.040     -90.496    -522.860
  H       75.359     -89.889    -525.078
  H       73.475     -92.306    -524.988
  H       82.040     -92.747    -523.459
  H       74.133     -92.365    -527.449
  H       82.080     -91.354    -524.505
  H       73.034     -91.047    -526.979
  P       73.241     -88.420    -524.914
  C       75.088     -87.428    -523.435
  O       73.732     -87.347    -523.827
  O       71.648     -88.270    -524.835
  O       73.760     -88.243    -526.300
  H       71.363     -87.473    -525.323
  H       75.324     -86.558    -522.820
  H       75.742     -87.432    -524.314
  H       75.252     -88.334    -522.841
  H       71.556     -89.752    -529.949
  H       72.389     -91.217    -529.487
  H       72.915     -90.319    -530.890

 3  4  5  6  7  8  9  10  11  12  13  21  23  27  28  29  30  32 0
 6-311+G(2d,p)
 ****
 34  35 0
 6-311+G(2d,p)
 ****
 1  2  14  15  16  17  18  19  20  22  24  25  26 0
 3-21G
 ****
 31  33  36  37  38  39  40  41  42  43  44  45  46 0
 3-21G
 ****


