%nproc=1
%NoSave
%Mem=1900MB
#P OB98/GEN NMR

erre ene a

0 1
  C      714.823    -339.883     -47.397
  O      715.608    -340.946     -46.877
  H      714.500    -339.248     -46.569
  H      713.945    -340.277     -47.913
  H      715.425    -339.281     -48.087
  P      716.158    -342.016     -47.935
  C      718.092    -342.909     -46.481
  O      716.806    -343.177     -47.026
  C      718.257    -343.611     -45.124
  O      717.299    -343.035     -44.193
  C      718.003    -345.121     -45.196
  O      718.935    -345.786     -44.327
  C      716.594    -345.276     -44.643
  O      716.364    -346.568     -44.090
  C      716.526    -344.126     -43.638
  N      712.110    -345.390     -41.403
  C      713.340    -345.949     -41.349
  N      714.464    -345.532     -41.965
  C      714.247    -344.404     -42.657
  C      713.039    -343.723     -42.816
  C      711.934    -344.281     -42.150
  N      710.669    -343.736     -42.224
  N      713.203    -342.627     -43.643
  C      714.488    -342.633     -43.979
  N      715.152    -343.693     -43.416
  O      717.041    -341.479     -49.009
  O      714.796    -342.698     -48.436
  H      715.487    -346.560     -43.663
  H      714.189    -342.885     -47.703
  H      713.433    -346.836     -40.731
  H      714.975    -341.907     -44.626
  H      716.947    -344.400     -42.670
  H      715.864    -345.124     -45.458
  H      718.097    -345.517     -46.209
  H      719.260    -343.389     -44.728
  H      718.221    -341.828     -46.348
  H      709.925    -344.186     -41.698
  H      710.524    -342.889     -42.751
  H      718.842    -343.267     -47.189
  P      719.899    -346.907     -44.950
  C      722.176    -345.702     -44.682
  O      721.336    -346.780     -44.254
  O      719.907    -346.999     -46.446
  O      719.322    -348.258     -44.308
  H      719.377    -348.971     -44.971
  H      723.099    -345.733     -44.142
  H      721.684    -344.770     -44.495
  H      722.373    -345.797     -45.729

 6  7  8  9  10  11  12  13  14  15  25  28  32  33  34  35 0
 6-311+G(2d,p)
 ****
 36  39  40 0
 6-311+G(2d,p)
 ****
 1  2  3  4  5  16  17  18  19  20  21  22  23  24 0
 3-21G
 ****
 26  27  29  30  31  37  38  41  42  43  44  45  46  47 0
 3-21G
 ****
 48 0
 3-21G
 ****


