%nproc=1
%NoSave
%Mem=1900MB
#P OB98/GEN NMR

erre ene a

0 1
  C     -361.487     308.975     284.257
  O     -361.890     308.416     285.494
  P     -363.454     308.167     285.741
  C     -364.208     310.465     286.738
  O     -363.892     309.100     286.964
  C     -364.909     311.047     287.965
  O     -366.161     310.372     288.213
  C     -364.116     310.897     289.257
  O     -363.077     311.872     289.349
  C     -365.197     311.061     290.313
  O     -365.450     312.450     290.576
  C     -366.405     310.393     289.629
  N     -366.690     309.070     290.157
  C     -367.063     309.003     291.500
  O     -367.134     310.003     292.216
  N     -367.321     307.759     291.991
  C     -367.196     306.583     291.313
  O     -367.380     305.491     291.834
  C     -366.759     306.699     289.917
  C     -366.536     307.914     289.412
  O     -363.530     306.685     286.330
  O     -364.310     308.331     284.524
  H     -364.603     312.925     290.472
  H     -364.338     306.238     286.014
  H     -367.620     307.699     292.962
  H     -366.641     305.784     289.342
  H     -366.196     308.027     288.373
  H     -367.302     311.021     289.761
  H     -364.910     310.603     291.271
  H     -363.688     309.884     289.324
  H     -365.122     312.112     287.773
  H     -364.870     310.544     285.861
  H     -363.289     311.014     286.524
  P     -361.589     311.326     289.648
  C     -362.312     310.548     292.034
  O     -361.456     311.352     291.241
  O     -360.713     312.576     289.131
  O     -361.284     310.042     288.953
  H     -361.175     313.432     289.272
  H     -362.549     309.597     291.540
  H     -363.237     311.098     292.224
  H     -361.831     310.335     292.971
  H     -360.422     309.080     284.243
  H     -361.941     309.936     284.135
  H     -361.793     308.332     283.458

 3  4  5  6  7  8  9  10  11  12  13  23  28  29  30  31  32 0
 6-311+G(2d,p)
 ****
 33  34 0
 6-311+G(2d,p)
 ****
 1  2  14  15  16  17  18  19  20  21  22  24  25  26 0
 3-21G
 ****
 27  35  36  37  38  39  40  41  42  43  44  45 0
 3-21G
 ****


