%nproc=1
%NoSave
%Mem=1900MB
#P OB98/GEN NMR

erre ene a

0 1
  C     -206.496    -499.917    -476.058
  O     -207.343    -498.833    -475.719
  H     -206.079    -500.342    -475.140
  H     -205.676    -499.573    -476.693
  H     -207.067    -500.692    -476.579
  P     -207.970    -498.010    -476.947
  C     -210.119    -499.486    -477.078
  O     -208.899    -499.094    -477.690
  C     -211.214    -499.589    -478.133
  O     -210.789    -500.425    -479.234
  C     -212.516    -500.218    -477.627
  O     -213.310    -499.303    -476.876
  C     -213.170    -500.586    -478.944
  O     -213.716    -499.407    -479.569
  C     -211.953    -501.131    -479.744
  N     -211.787    -502.582    -479.607
  C     -211.302    -503.268    -480.727
  O     -211.054    -502.662    -481.774
  N     -211.150    -504.629    -480.651
  C     -211.435    -505.252    -479.549
  N     -211.276    -506.606    -479.533
  C     -211.925    -504.568    -478.344
  C     -212.077    -503.254    -478.440
  O     -206.746    -497.851    -477.964
  O     -208.652    -496.725    -476.595
  H     -212.962    -498.840    -479.805
  H     -207.060    -497.459    -478.817
  H     -212.166    -505.137    -477.447
  H     -212.440    -502.682    -477.589
  H     -212.050    -500.885    -480.808
  H     -213.996    -501.297    -478.834
  H     -212.326    -501.131    -477.061
  H     -211.391    -498.581    -478.538
  H     -210.993    -507.061    -480.400
  H     -210.389    -498.741    -476.322
  H     -211.642    -507.193    -478.791
  H     -209.993    -500.456    -476.585
  P     -214.396    -499.927    -475.868
  C     -212.829    -499.943    -473.782
  O     -213.574    -500.706    -474.721
  O     -215.052    -501.106    -476.718
  O     -215.424    -498.952    -475.367
  H     -216.011    -501.171    -476.558
  H     -212.344    -500.601    -473.092
  H     -213.489    -499.291    -473.249
  H     -212.093    -499.362    -474.298

 6  7  8  9  10  11  12  13  14  15  16  26  30  31  32  33  35 0
 6-311+G(2d,p)
 ****
 37  38 0
 6-311+G(2d,p)
 ****
 1  2  3  4  5  17  18  19  20  21  22  23  24  25 0
 3-21G
 ****
 27  28  29  34  36  39  40  41  42  43  44  45  46 0
 3-21G
 ****


