%nproc=1
%NoSave
%Mem=1900MB
#P OB98/GEN NMR

erre ene a

0 1
  C      144.216     823.680     289.201
  O      145.554     823.329     289.520
  H      143.827     824.319     289.992
  H      143.591     822.781     289.137
  H      144.182     824.228     288.250
  P      146.338     822.327     288.537
  C      146.905     822.286     286.019
  O      146.455     823.068     287.118
  C      147.745     823.129     285.063
  O      146.909     824.221     284.583
  C      148.980     823.747     285.755
  O      150.200     823.481     285.066
  C      148.586     825.218     285.946
  O      149.665     826.113     286.019
  C      147.620     825.468     284.782
  N      146.668     826.560     285.020
  C      147.129     827.858     284.802
  O      148.258     828.149     284.382
  N      146.214     828.846     285.049
  C      144.953     828.688     285.513
  O      144.192     829.623     285.728
  C      144.533     827.308     285.754
  C      145.403     826.311     285.511
  O      145.808     820.928     288.475
  O      147.840     822.351     289.090
  H      150.210     826.000     285.203
  H      148.020     821.548     289.610
  H      146.538     829.791     284.883
  H      143.534     827.138     286.133
  H      145.124     825.261     285.679
  H      148.161     825.692     283.867
  H      148.041     825.295     286.891
  H      149.140     823.286     286.743
  H      148.030     822.524     284.201
  H      146.011     821.902     285.505
  H      147.497     821.433     286.384
  P      151.419     822.638     285.666
  C      151.668     820.073     286.106
  O      151.222     821.107     285.256
  O      151.738     822.909     287.101
  O      152.683     823.120     284.789
  H      153.464     823.083     285.376
  H      151.448     819.125     285.661
  H      151.170     820.148     287.050
  H      152.724     820.162     286.252

 6  7  8  9  10  11  12  13  14  15  16  26  31  32  33  34  35 0
 6-311+G(2d,p)
 ****
 36  37 0
 6-311+G(2d,p)
 ****
 1  2  3  4  5  17  18  19  20  21  22  23  24  25 0
 3-21G
 ****
 27  28  29  30  38  39  40  41  42  43  44  45 0
 3-21G
 ****


