%nproc=1
%NoSave
%Mem=1900MB
#P OB98/GEN NMR

erre ene a

0 1
  C       -8.992      30.792      79.533
  O       -8.868      30.393      78.186
  H       -8.277      30.224      80.133
  H      -10.002      30.571      79.888
  H       -8.785      31.858      79.655
  P       -9.444      31.350      77.043
  C      -11.527      30.663      75.682
  O      -11.028      31.108      76.938
  C      -11.296      29.165      75.481
  O      -11.768      28.442      76.638
  C      -12.056      28.611      74.273
  O      -11.362      28.719      73.042
  C      -12.249      27.148      74.666
  O      -11.132      26.345      74.253
  C      -12.337      27.201      76.195
  N      -15.508      25.143      79.639
  C      -14.176      24.857      79.408
  N      -13.642      23.876      80.167
  N      -13.454      25.469      78.506
  C      -14.152      26.354      77.759
  C      -15.478      26.706      77.881
  C      -16.251      26.078      78.931
  O      -17.428      26.308      79.187
  N      -15.851      27.613      76.917
  C      -14.775      27.738      76.165
  N      -13.698      27.057      76.682
  O       -8.903      30.681      75.688
  O       -9.018      32.785      77.128
  H      -11.141      26.294      73.278
  H       -8.753      31.373      75.019
  H      -16.004      24.660      80.365
  H      -14.708      28.342      75.267
  H      -11.748      26.399      76.657
  H      -13.135      26.729      74.181
  H      -14.172      23.315      80.813
  H      -13.044      29.075      74.190
  H      -12.726      23.506      79.901
  H      -10.219      28.973      75.401
  H      -10.993      31.230      74.918
  H      -12.590      30.903      75.588
  P      -12.147      28.676      71.650
  C      -11.888      26.457      70.271
  O      -12.512      27.158      71.325
  O      -11.007      29.019      70.582
  O      -13.314      29.602      71.542
  H      -11.046      29.960      70.327
  H      -12.276      25.461      70.227
  H      -10.832      26.422      70.442
  H      -12.083      26.957      69.345

 6  7  8  9  10  11  12  13  14  15  26  29  33  34 0
 6-311+G(2d,p)
 ****
 36  38  39  40  41 0
 6-311+G(2d,p)
 ****
 1  2  3  4  5  16  17  18  19  20  21  22  23  24  25 0
 3-21G
 ****
 27  28  30  31  32  35  37  42  43  44  45  46  47 0
 3-21G
 ****
 48  49 0
 3-21G
 ****


