%nproc=1
%NoSave
%Mem=1900MB
#P OB98/GEN NMR

erre ene a

0 1
  C      533.281     -31.244      79.727
  O      532.669     -32.465      80.089
  H      533.855     -30.875      80.579
  H      532.517     -30.507      79.472
  H      533.958     -31.390      78.881
  P      531.844     -33.230      78.943
  C      533.614     -34.834      77.930
  O      532.505     -34.690      78.807
  C      533.761     -36.285      77.479
  O      534.555     -36.320      76.255
  C      534.453     -37.200      78.500
  O      533.855     -38.501      78.410
  C      535.873     -37.293      77.966
  O      536.563     -38.445      78.444
  C      535.596     -37.297      76.464
  N      537.814     -38.034      72.007
  C      536.578     -38.442      72.474
  N      535.815     -39.160      71.624
  N      536.134     -38.172      73.672
  C      536.988     -37.419      74.407
  C      538.238     -36.958      74.065
  C      538.731     -37.287      72.742
  O      539.823     -36.971      72.283
  N      538.801     -36.250      75.096
  C      537.895     -36.286      76.059
  N      536.781     -36.985      75.687
  O      532.315     -32.478      77.612
  O      530.362     -33.214      79.102
  H      536.762     -38.305      79.394
  H      531.693     -31.757      77.392
  H      538.116     -38.282      71.081
  H      538.000     -35.832      77.036
  H      535.229     -38.268      76.107
  H      536.447     -36.405      78.258
  H      536.072     -39.367      70.672
  H      534.404     -36.840      79.535
  H      534.890     -39.432      71.929
  H      532.768     -36.672      77.219
  H      534.524     -34.529      78.455
  H      533.471     -34.184      77.061
  P      533.431     -39.233      79.771
  C      530.955     -38.652      80.319
  O      531.862     -39.549      79.695
  O      533.500     -38.046      80.849
  O      534.310     -40.376      80.154
  H      533.694     -38.414      81.732
  H      529.954     -39.002      80.179
  H      531.057     -37.680      79.883
  H      531.170     -38.598      81.366

 6  7  8  9  10  11  12  13  14  15  26  29  33  34 0
 6-311+G(2d,p)
 ****
 36  38  39  40  41 0
 6-311+G(2d,p)
 ****
 1  2  3  4  5  16  17  18  19  20  21  22  23  24  25 0
 3-21G
 ****
 27  28  30  31  32  35  37  42  43  44  45  46  47 0
 3-21G
 ****
 48  49 0
 3-21G
 ****


