%nproc=1
%NoSave
%Mem=1900MB
#P OB98/GEN NMR

erre ene a

0 1
  C      114.897    -159.691     -53.197
  O      113.588    -160.124     -52.879
  H      114.980    -158.624     -52.973
  H      115.090    -159.844     -54.263
  H      115.636    -160.236     -52.603
  P      113.331    -161.705     -52.915
  C      111.860    -161.438     -55.070
  O      112.947    -162.092     -54.429
  C      111.209    -162.374     -56.084
  O      110.148    -161.704     -56.794
  C      112.142    -162.839     -57.192
  O      113.090    -163.785     -56.743
  C      111.139    -163.411     -58.183
  O      110.786    -164.762     -57.863
  C      109.924    -162.470     -58.001
  N      109.718    -161.624     -59.163
  C      108.682    -162.022     -60.019
  O      108.008    -163.018     -59.750
  N      108.468    -161.307     -61.168
  C      109.236    -160.300     -61.455
  N      108.989    -159.653     -62.626
  C      110.338    -159.849     -60.581
  C      110.523    -160.549     -59.461
  O      111.941    -161.846     -52.138
  O      114.436    -162.530     -52.348
  H      110.108    -165.033     -58.518
  H      111.254    -161.237     -52.449
  H      110.940    -158.996     -60.858
  H      111.308    -160.288     -58.763
  H      109.006    -163.053     -57.836
  H      111.537    -163.422     -59.200
  H      112.631    -161.975     -57.662
  H      110.782    -163.226     -55.539
  H      108.261    -160.033     -63.221
  H      112.199    -160.520     -55.562
  H      109.569    -158.911     -62.988
  H      111.141    -161.153     -54.296
  P      114.541    -163.888     -57.411
  C      113.924    -166.199     -58.373
  O      114.403    -164.889     -58.664
  O      115.651    -164.228     -56.477
  O      114.709    -162.471     -58.137
  H      114.034    -162.272     -58.811
  H      113.875    -166.770     -59.277
  H      112.948    -166.134     -57.939
  H      114.589    -166.677     -57.685

 6  7  8  9  10  11  12  13  14  15  16  26  30  31  32  33  35 0
 6-311+G(2d,p)
 ****
 37  38 0
 6-311+G(2d,p)
 ****
 1  2  3  4  5  17  18  19  20  21  22  23  24  25 0
 3-21G
 ****
 27  28  29  34  36  39  40  41  42  43  44  45  46 0
 3-21G
 ****


