%nproc=1
%NoSave
%Mem=1900MB
#P OB98/GEN NMR

erre ene a

0 1
  C      -23.056      68.153     -78.469
  O      -22.046      67.184     -78.662
  P      -21.985      65.873     -77.741
  C      -21.554      65.499     -75.225
  O      -21.362      66.363     -76.343
  C      -20.374      65.595     -74.257
  O      -19.164      65.130     -74.885
  C      -20.077      67.009     -73.778
  O      -21.007      67.406     -72.786
  C      -18.645      66.856     -73.281
  O      -18.611      66.317     -71.950
  C      -18.059      65.847     -74.293
  N      -17.228      66.491     -75.302
  C      -16.169      67.268     -74.817
  O      -16.001      67.404     -73.605
  N      -15.357      67.912     -75.720
  C      -15.598      67.807     -76.990
  N      -14.766      68.477     -77.833
  C      -16.723      67.023     -77.540
  C      -17.490      66.400     -76.648
  O      -21.320      64.689     -78.359
  O      -23.524      65.618     -77.375
  H      -19.045      66.980     -71.377
  H      -24.022      65.248     -78.144
  H      -16.891      66.975     -78.605
  H      -18.339      65.806     -76.964
  H      -17.447      65.096     -73.775
  H      -18.115      67.813     -73.254
  H      -20.098      67.701     -74.628
  H      -20.586      64.942     -73.399
  H      -14.026      69.026     -77.414
  H      -21.635      64.473     -75.594
  H      -14.885      68.493     -78.834
  H      -22.491      65.760     -74.722
  P      -21.766      68.808     -72.920
  C      -21.015      71.253     -73.124
  O      -20.706      69.970     -72.614
  O      -23.057      68.912     -72.179
  O      -22.008      68.951     -74.498
  H      -22.920      69.264     -74.653
  H      -20.423      71.997     -72.585
  H      -22.076      71.482     -72.997
  H      -20.756      71.295     -74.185
  H      -22.929      68.947     -79.175
  H      -22.989      68.545     -77.476
  H      -24.016      67.701     -78.610

 3  4  5  6  7  8  9  10  11  12  13  23  27  28  29  30  32 0
 6-311+G(2d,p)
 ****
 34  35 0
 6-311+G(2d,p)
 ****
 1  2  14  15  16  17  18  19  20  21  22  24  25  26 0
 3-21G
 ****
 31  33  36  37  38  39  40  41  42  43  44  45  46 0
 3-21G
 ****


