%nproc=1
%NoSave
%Mem=1900MB
#P OB98/GEN NMR

erre ene a

0 1
  C     -274.102     498.134    -251.168
  O     -275.237     498.616    -251.863
  H     -273.195     498.598    -251.562
  H     -274.202     498.393    -250.112
  H     -274.035     497.046    -251.261
  P     -275.297     498.310    -253.437
  C     -274.120     499.273    -255.542
  O     -274.276     499.333    -254.131
  C     -273.164     500.362    -256.016
  O     -273.766     501.661    -255.845
  C     -271.842     500.418    -255.260
  O     -270.926     499.435    -255.719
  C     -271.371     501.824    -255.615
  O     -270.802     501.827    -256.937
  C     -272.691     502.611    -255.607
  N     -270.870     506.045    -252.277
  C     -270.416     505.621    -253.479
  N     -270.969     504.722    -254.319
  C     -272.119     504.249    -253.812
  C     -272.721     504.599    -252.614
  C     -272.042     505.540    -251.822
  N     -272.486     505.910    -250.562
  N     -273.896     503.887    -252.433
  C     -273.985     503.113    -253.493
  N     -272.943     503.301    -254.356
  O     -276.741     498.868    -253.852
  O     -275.129     496.875    -253.813
  H     -270.020     501.243    -256.910
  H     -277.377     498.128    -253.873
  H     -269.484     506.068    -253.810
  H     -274.782     502.403    -253.672
  H     -272.733     503.354    -256.412
  H     -270.609     502.207    -254.929
  H     -271.995     500.353    -254.175
  H     -272.992     500.214    -257.090
  H     -275.096     499.415    -256.022
  H     -271.732     506.189    -249.933
  H     -273.206     505.312    -250.176
  H     -273.736     498.284    -255.810
  P     -269.904     498.809    -254.656
  C     -267.596     499.544    -253.741
  O     -268.819     499.953    -254.337
  O     -269.084     497.746    -255.528
  O     -270.532     498.170    -253.467
  H     -269.151     496.862    -255.115
  H     -266.972     500.399    -253.585
  H     -267.098     498.852    -254.388
  H     -267.797     499.073    -252.802

 6  7  8  9  10  11  12  13  14  15  25  28  32  33  34  35 0
 6-311+G(2d,p)
 ****
 36  39  40 0
 6-311+G(2d,p)
 ****
 1  2  3  4  5  16  17  18  19  20  21  22  23  24 0
 3-21G
 ****
 26  27  29  30  31  37  38  41  42  43  44  45  46  47  48 0
 3-21G
 ****


