%nproc=1
%NoSave
%Mem=1900MB
#P OB98/GEN NMR

erre ene a

0 1
  C      226.430     239.211     -24.607
  O      227.480     238.508     -25.237
  H      226.098     238.640     -23.736
  H      225.587     239.323     -25.292
  H      226.767     240.196     -24.269
  P      228.286     239.222     -26.424
  C      228.010     239.263     -28.988
  O      227.360     239.138     -27.729
  C      227.258     238.460     -30.044
  O      227.574     237.058     -29.922
  C      225.741     238.555     -29.932
  O      225.273     239.796     -30.425
  C      225.322     237.341     -30.749
  O      225.368     237.629     -32.154
  C      226.413     236.315     -30.359
  N      225.976     235.373     -29.330
  C      224.941     234.512     -29.679
  O      224.379     234.546     -30.773
  N      224.559     233.616     -28.716
  C      225.043     233.558     -27.441
  O      224.628     232.769     -26.597
  C      226.110     234.514     -27.117
  C      226.521     235.363     -28.060
  O      229.693     238.764     -26.622
  O      228.223     240.775     -26.039
  H      225.495     236.774     -32.610
  H      229.064     241.047     -25.629
  H      223.802     232.992     -28.945
  H      226.514     234.501     -26.114
  H      227.304     236.081     -27.839
  H      226.724     235.739     -31.238
  H      224.304     237.015     -30.529
  H      225.427     238.404     -28.893
  H      227.597     238.796     -31.033
  H      229.033     238.879     -28.895
  H      228.051     240.322     -29.261
  P      223.856     240.376     -29.966
  C      221.403     239.736     -30.322
  O      222.746     239.267     -30.303
  O      223.538     241.747     -30.465
  O      223.925     240.346     -28.367
  H      224.039     241.254     -28.023
  H      220.745     238.925     -30.555
  H      221.303     240.501     -31.064
  H      221.151     240.135     -29.362

 6  7  8  9  10  11  12  13  14  15  16  26  31  32  33  34  35 0
 6-311+G(2d,p)
 ****
 36  37 0
 6-311+G(2d,p)
 ****
 1  2  3  4  5  17  18  19  20  21  22  23  24  25 0
 3-21G
 ****
 27  28  29  30  38  39  40  41  42  43  44  45 0
 3-21G
 ****


