%nproc=1
%NoSave
%Mem=1900MB
#P OB98/GEN NMR

erre ene a

0 1
  C      674.051     361.859    -204.543
  O      674.278     361.313    -203.260
  H      674.440     361.165    -205.292
  H      674.571     362.817    -204.647
  H      672.979     361.992    -204.711
  P      673.807     362.204    -202.009
  C      676.149     363.317    -202.021
  O      674.737     363.510    -202.075
  C      676.868     364.657    -201.882
  O      676.668     365.456    -203.060
  C      676.385     365.511    -200.714
  O      677.024     365.111    -199.506
  C      676.845     366.893    -201.150
  O      678.247     367.057    -200.845
  C      676.637     366.854    -202.675
  N      674.515     370.860    -205.074
  C      675.760     370.661    -204.595
  N      676.243     369.591    -203.924
  C      675.282     368.660    -203.762
  C      673.965     368.733    -204.194
  C      673.587     369.889    -204.886
  N      672.312     370.092    -205.373
  N      673.279     367.588    -203.845
  C      674.184     366.823    -203.261
  N      675.403     367.441    -203.156
  O      673.758     361.496    -200.695
  O      672.399     362.755    -202.538
  H      678.435     368.013    -200.920
  H      672.459     362.998    -203.478
  H      676.466     371.466    -204.780
  H      674.005     365.809    -202.928
  H      677.456     367.360    -203.207
  H      676.309     367.695    -200.636
  H      675.291     365.505    -200.626
  H      677.945     364.454    -201.799
  H      676.497     362.808    -202.926
  H      672.076     371.026    -205.679
  H      671.602     369.426    -205.110
  H      676.362     362.680    -201.156
  P      676.352     365.393    -198.077
  C      678.203     367.082    -197.499
  O      676.812     366.882    -197.692
  O      676.618     364.350    -197.053
  O      674.793     365.564    -198.401
  H      674.276     365.481    -197.581
  H      678.385     368.106    -197.248
  H      678.727     366.837    -198.399
  H      678.547     366.454    -196.704

 6  7  8  9  10  11  12  13  14  15  25  28  32  33  34  35 0
 6-311+G(2d,p)
 ****
 36  39  40 0
 6-311+G(2d,p)
 ****
 1  2  3  4  5  16  17  18  19  20  21  22  23  24 0
 3-21G
 ****
 26  27  29  30  31  37  38  41  42  43  44  45  46  47 0
 3-21G
 ****
 48 0
 3-21G
 ****


