%nproc=1
%NoSave
%Mem=1900MB
#P OB98/GEN NMR

erre ene a

0 1
  C       60.658    -228.986     261.320
  O       61.170    -227.928     262.102
  H       59.616    -229.161     261.607
  H       61.227    -229.900     261.513
  H       60.692    -228.743     260.254
  P       62.580    -227.278     261.703
  C       61.932    -225.173     260.352
  O       62.330    -225.693     261.614
  C       60.779    -224.181     260.534
  O       59.563    -224.940     260.813
  C       60.996    -223.192     261.699
  O       60.401    -221.937     261.350
  C       60.198    -223.856     262.806
  O       59.869    -222.949     263.830
  C       59.003    -224.397     262.026
  N       58.269    -225.398     262.799
  C       56.884    -225.298     262.801
  O       56.260    -224.416     262.205
  N       56.214    -226.203     263.583
  C       56.793    -227.107     264.427
  O       56.151    -227.842     265.162
  C       58.266    -227.133     264.424
  C       58.929    -226.296     263.618
  O       63.259    -227.868     260.511
  O       63.466    -227.404     263.033
  H       59.292    -223.387     264.488
  H       64.416    -227.347     262.815
  H       55.208    -226.149     263.587
  H       58.761    -227.828     265.093
  H       60.013    -226.278     263.602
  H       58.320    -223.586     261.744
  H       60.784    -224.668     263.254
  H       62.049    -223.050     261.950
  H       60.611    -223.649     259.588
  H       61.609    -226.012     259.722
  H       62.784    -224.677     259.877
  P       61.283    -220.624     261.077
  C       62.347    -220.770     258.742
  O       61.267    -220.245     259.510
  O       62.655    -220.673     261.676
  O       60.443    -219.434     261.751
  H       61.044    -218.870     262.273
  H       62.243    -220.462     257.723
  H       62.336    -221.839     258.795
  H       63.273    -220.403     259.132

 6  7  8  9  10  11  12  13  14  15  16  26  31  32  33  34  35 0
 6-311+G(2d,p)
 ****
 36  37 0
 6-311+G(2d,p)
 ****
 1  2  3  4  5  17  18  19  20  21  22  23  24  25 0
 3-21G
 ****
 27  28  29  30  38  39  40  41  42  43  44  45 0
 3-21G
 ****


