%nproc=1
%NoSave
%Mem=1900MB
#P OB98/GEN NMR

erre ene a

0 1
  C     -370.382    -293.954     226.084
  O     -370.153    -292.826     225.269
  P     -368.843    -291.919     225.475
  C     -370.366    -290.213     226.671
  O     -369.167    -290.984     226.742
  C     -371.076    -290.200     228.022
  O     -371.317    -291.547     228.487
  C     -370.296    -289.511     229.137
  O     -370.372    -288.101     229.003
  C     -370.980    -290.075     230.366
  O     -372.181    -289.352     230.671
  C     -371.306    -291.523     229.929
  N     -370.371    -292.495     230.482
  C     -370.808    -293.184     231.620
  O     -371.904    -292.932     232.123
  N     -369.960    -294.109     232.195
  C     -368.786    -294.306     231.690
  N     -367.991    -295.218     232.307
  C     -368.280    -293.581     230.507
  C     -369.112    -292.694     229.962
  O     -368.366    -291.205     224.251
  O     -367.771    -292.957     226.061
  H     -372.573    -289.796     231.458
  H     -367.436    -293.565     225.359
  H     -367.284    -293.767     230.128
  H     -368.820    -292.115     229.095
  H     -372.322    -291.795     230.249
  H     -370.344    -290.018     231.262
  H     -369.250    -289.844     229.114
  H     -372.050    -289.707     227.889
  H     -368.372    -295.675     233.133
  H     -371.023    -290.661     225.918
  H     -367.047    -295.425     232.019
  H     -370.125    -289.193     226.350
  P     -369.042    -287.251     228.758
  C     -369.611    -285.636     230.662
  O     -368.650    -286.534     230.130
  O     -369.066    -286.358     227.555
  O     -367.904    -288.370     228.596
  H     -367.332    -288.134     227.844
  H     -369.397    -285.481     231.723
  H     -370.624    -286.032     230.567
  H     -369.540    -284.680     230.150
  H     -371.299    -294.423     225.794
  H     -370.446    -293.648     227.107
  H     -369.575    -294.647     225.969

 3  4  5  6  7  8  9  10  11  12  13  23  27  28  29  30  32 0
 6-311+G(2d,p)
 ****
 34  35 0
 6-311+G(2d,p)
 ****
 1  2  14  15  16  17  18  19  20  21  22  24  25  26 0
 3-21G
 ****
 31  33  36  37  38  39  40  41  42  43  44  45  46 0
 3-21G
 ****


