%nproc=1
%NoSave
%Mem=1900MB
#P OB98/GEN NMR

erre ene a

0 1
  C       26.030      -2.980     -19.609
  O       26.112      -3.807     -20.776
  P       25.100      -3.644     -22.010
  C       23.251      -5.178     -21.080
  O       23.601      -3.855     -21.479
  C       22.064      -5.183     -20.113
  O       20.822      -5.023     -20.826
  C       21.919      -6.463     -19.296
  O       22.836      -6.474     -18.219
  C       20.449      -6.392     -18.891
  O       20.281      -5.522     -17.759
  C       19.805      -5.777     -20.139
  N       15.426      -7.780     -21.857
  C       15.681      -6.772     -20.995
  N       16.877      -6.300     -20.583
  C       17.879      -6.967     -21.180
  C       17.773      -8.019     -22.076
  C       16.473      -8.430     -22.415
  N       16.216      -9.467     -23.282
  N       19.020      -8.467     -22.454
  C       19.866      -7.686     -21.811
  N       19.225      -6.765     -21.029
  O       25.448      -4.473     -23.203
  O       25.148      -2.085     -22.373
  H       19.331      -5.504     -17.544
  H       24.945      -1.961     -23.318
  H       14.806      -6.278     -20.579
  H       20.944      -7.746     -21.881
  H       19.013      -5.067     -19.877
  H       20.039      -7.368     -18.616
  H       22.076      -7.336     -19.938
  H       22.170      -4.316     -19.448
  H       24.122      -5.633     -20.594
  H       15.256      -9.722     -23.448
  H       16.991      -9.987     -23.666
  H       23.004      -5.758     -21.976
  P       24.021      -7.551     -18.184
  C       22.997      -9.362     -16.685
  O       23.344      -8.993     -18.006
  O       25.137      -7.251     -17.240
  O       24.538      -7.592     -19.700
  H       25.486      -7.821     -19.710
  H       23.889      -9.716     -16.160
  H       22.266     -10.173     -16.728
  H       22.562      -8.519     -16.143
  H       26.797      -3.261     -18.918
  H       25.072      -3.106     -19.149
  H       26.159      -1.955     -19.888

 3  4  5  6  7  8  9  10  11  12  22  25  29  30  31  32 0
 6-311+G(2d,p)
 ****
 33  36  37 0
 6-311+G(2d,p)
 ****
 1  2  13  14  15  16  17  18  19  20  21  23  24  26 0
 3-21G
 ****
 27  28  34  35  38  39  40  41  42  43  44  45  46  47  48 0
 3-21G
 ****


