%nproc=1
%NoSave
%Mem=1900MB
#P OB98/GEN NMR

erre ene a

0 1
  C       99.743    -180.985    -153.489
  O      101.082    -181.345    -153.198
  P      101.541    -181.745    -151.711
  C      103.264    -179.817    -151.713
  O      102.142    -180.401    -151.076
  C      103.385    -178.341    -151.327
  O      104.651    -177.834    -151.826
  C      102.274    -177.447    -151.891
  O      102.008    -176.433    -150.915
  C      102.918    -176.845    -153.125
  O      102.291    -175.639    -153.537
  C      104.364    -176.685    -152.647
  N      105.311    -176.578    -153.752
  C      105.452    -175.335    -154.371
  O      104.781    -174.370    -154.009
  N      106.358    -175.210    -155.394
  C      107.001    -176.251    -155.821
  N      107.930    -176.064    -156.796
  C      106.802    -177.604    -155.268
  C      105.970    -177.687    -154.234
  O      102.440    -182.929    -151.631
  O      100.172    -181.909    -150.907
  H      102.874    -175.195    -154.182
  H       99.772    -182.810    -151.003
  H      107.341    -178.447    -155.675
  H      105.781    -178.634    -153.749
  H      104.453    -175.805    -151.999
  H      102.853    -177.558    -153.955
  H      101.353    -177.999    -152.100
  H      103.414    -178.271    -150.233
  H      108.162    -175.101    -157.026
  H      103.124    -179.887    -152.794
  H      108.677    -176.734    -156.943
  H      104.170    -180.370    -151.445
  P      100.509    -176.287    -150.359
  C       99.706    -174.343    -151.876
  O       99.596    -175.708    -151.541
  O      100.647    -175.012    -149.390
  O       99.968    -177.448    -149.592
  H       99.954    -175.058    -148.706
  H       99.019    -174.131    -152.702
  H      100.721    -174.107    -152.201
  H       99.432    -173.715    -151.025
  H       99.653    -180.757    -154.531
  H       99.471    -180.126    -152.911
  H       99.094    -181.800    -153.245

 3  4  5  6  7  8  9  10  11  12  13  23  27  28  29  30  32 0
 6-311+G(2d,p)
 ****
 34  35 0
 6-311+G(2d,p)
 ****
 1  2  14  15  16  17  18  19  20  21  22  24  25  26 0
 3-21G
 ****
 31  33  36  37  38  39  40  41  42  43  44  45  46 0
 3-21G
 ****


