%nproc=1
%NoSave
%Mem=1900MB
#P OB98/GEN NMR

erre ene a

0 1
  C     -165.137     333.003    -360.781
  O     -163.827     333.552    -360.827
  P     -163.288     334.086    -362.241
  C     -161.365     332.353    -362.154
  O     -162.459     332.876    -362.901
  C     -160.038     332.732    -362.803
  O     -158.953     332.357    -361.908
  C     -159.776     332.049    -364.155
  O     -159.239     333.007    -365.079
  C     -158.681     331.042    -363.841
  O     -157.901     330.722    -364.992
  C     -157.922     331.796    -362.750
  N     -153.300     329.740    -362.633
  C     -153.808     330.726    -363.456
  N     -152.986     331.183    -364.424
  N     -155.020     331.215    -363.349
  C     -155.719     330.683    -362.315
  C     -155.327     329.709    -361.425
  C     -154.005     329.134    -361.597
  O     -153.533     328.199    -360.956
  N     -156.311     329.443    -360.508
  C     -157.301     330.251    -360.847
  N     -157.012     330.986    -361.963
  O     -162.156     335.134    -361.818
  O     -164.314     334.718    -363.117
  H     -157.417     331.529    -365.237
  H     -162.350     336.007    -362.215
  H     -152.369     329.385    -362.769
  H     -158.254     330.309    -360.329
  H     -157.345     332.623    -363.181
  H     -159.133     330.120    -363.461
  H     -152.034     330.880    -364.541
  H     -160.664     331.572    -364.595
  H     -153.331     331.925    -365.024
  H     -159.996     333.826    -362.911
  H     -161.442     331.263    -362.106
  H     -161.411     332.754    -361.134
  P     -160.128     333.315    -366.380
  C     -158.772     331.587    -367.789
  O     -160.036     332.003    -367.295
  O     -159.260     334.401    -367.176
  O     -161.507     333.800    -366.068
  H     -159.834     334.940    -367.755
  H     -157.946     332.151    -367.332
  H     -158.746     331.732    -368.869
  H     -158.635     330.523    -367.565
  H     -165.358     332.691    -359.782
  H     -165.194     332.161    -361.438
  H     -165.845     333.744    -361.089

 3  4  5  6  7  8  9  10  11  12  23  26  30  31  33  0
 6-311+G(2d,p)
 ****
 35  36  37  38 0
 6-311+G(2d,p)
 ****
 1  2  13  14  15  16  17  18  19  20  21  22  24  25  27  28  29 0
 3-21G
 ****
 32  34  39  40  41  42  43  44  45  46  47  48  49 0
 3-21G
 ****


