%nproc=1
%NoSave
%Mem=1900MB
#P OB98/GEN NMR

erre ene a

0 1
  C      -52.209     251.790     278.135
  O      -52.292     250.968     279.281
  H      -51.165     251.846     277.816
  H      -52.560     252.802     278.373
  H      -52.807     251.371     277.321
  P      -53.757     250.719     279.887
  C      -53.325     250.682     282.455
  O      -53.544     249.928     281.267
  C      -53.059     249.742     283.625
  O      -54.252     248.982     283.913
  C      -51.970     248.704     283.361
  O      -50.669     249.252     283.506
  C      -52.305     247.651     284.409
  O      -51.753     247.987     285.689
  C      -53.839     247.713     284.466
  N      -54.761     242.700     284.506
  C      -54.176     243.516     285.408
  N      -53.988     244.851     285.328
  C      -54.482     245.334     284.175
  C      -55.097     244.618     283.158
  C      -55.239     243.234     283.354
  N      -55.802     242.396     282.423
  N      -55.432     245.455     282.111
  C      -55.028     246.655     282.491
  N      -54.458     246.628     283.735
  O      -54.371     249.613     278.901
  O      -54.624     251.930     279.975
  H      -52.054     247.296     286.312
  H      -54.899     250.050     278.207
  H      -53.808     243.034     286.314
  H      -55.126     247.562     281.903
  H      -54.215     247.670     285.493
  H      -51.910     246.673     284.129
  H      -52.100     248.265     282.361
  H      -52.817     250.345     284.509
  H      -54.219     251.285     282.668
  H      -52.471     251.352     282.295
  H      -55.847     241.408     282.619
  H      -56.061     242.771     281.521
  P      -49.626     249.065     282.302
  C      -48.542     247.071     283.573
  O      -48.343     248.294     282.891
  O      -49.094     250.550     282.045
  O      -50.202     248.454     281.067
  H      -49.544     250.950     281.274
  H      -47.598     246.688     283.900
  H      -49.004     246.366     282.914
  H      -49.174     247.234     284.421

 6  7  8  9  10  11  12  13  14  15  25  28  32  33  34  35 0
 6-311+G(2d,p)
 ****
 36  37  40 0
 6-311+G(2d,p)
 ****
 1  2  3  4  5  16  17  18  19  20  21  22  23  24 0
 3-21G
 ****
 26  27  29  30  31  38  39 41  42  43  44  45  46  47  48 0
 3-21G
 ****


