%nproc=1
%NoSave
%Mem=1900MB
#P OB98/GEN NMR

erre ene a

0 1
  C      -58.833     207.258     -35.358
  O      -60.123     207.420     -34.804
  H      -58.335     206.428     -34.852
  H      -58.242     208.164     -35.205
  H      -58.893     207.030     -36.428
  P      -61.144     208.438     -35.503
  C      -61.134     210.948     -36.110
  O      -60.492     209.902     -35.394
  C      -60.145     212.084     -36.375
  O      -59.033     211.602     -37.160
  C      -60.732     213.252     -37.159
  O      -61.558     214.054     -36.333
  C      -59.463     213.929     -37.652
  O      -58.883     214.744     -36.614
  C      -58.562     212.710     -37.960
  N      -58.537     212.357     -39.381
  C      -57.623     213.043     -40.173
  O      -56.886     213.927     -39.738
  N      -57.592     212.682     -41.502
  C      -58.424     211.788     -42.104
  O      -58.398     211.541     -43.307
  C      -59.402     211.122     -41.227
  C      -59.409     211.430     -39.923
  O      -62.566     208.353     -35.051
  O      -61.004     208.098     -37.064
  H      -59.382     215.586     -36.612
  H      -61.751     207.537     -37.348
  H      -56.944     213.177     -42.090
  H      -60.082     210.407     -41.673
  H      -60.121     210.952     -39.258
  H      -57.529     212.907     -37.639
  H      -59.635     214.583     -38.506
  H      -61.292     212.881     -38.031
  H      -59.749     212.421     -35.407
  H      -61.971     211.326     -35.506
  H      -61.524     210.544     -37.054
  P      -62.299     215.342     -36.925
  C      -61.618     217.681     -37.726
  O      -61.165     216.365     -37.425
  O      -63.335     215.948     -36.033
  O      -62.952     214.825     -38.295
  H      -63.914     214.728     -38.184
  H      -60.790     218.278     -38.048
  H      -62.054     218.117     -36.851
  H      -62.350     217.637     -38.505

 6  7  8  9  10  11  12  13  14  15  16  26  31  32  33  34  35 0
 6-311+G(2d,p)
 ****
 36  37 0
 6-311+G(2d,p)
 ****
 1  2  3  4  5  17  18  19  20  21  22  23  24  25 0
 3-21G
 ****
 27  28  29  30  38  39  40  41  42  43  44  45 0
 3-21G
 ****


