%nproc=1
%NoSave
%Mem=1900MB
#P OB98/GEN NMR

erre ene a

0 1
  C       59.691    1031.484    -195.200
  O       59.393    1032.196    -194.004
  P       59.155    1033.775    -194.121
  C       60.666    1035.841    -193.756
  O       60.617    1034.457    -194.063
  C       61.892    1036.168    -192.913
  O       61.696    1035.587    -191.572
  C       63.211    1035.611    -193.450
  O       64.247    1036.611    -193.329
  C       63.557    1034.476    -192.486
  O       64.957    1034.212    -192.446
  C       62.968    1035.034    -191.180
  N       65.279    1032.708    -187.326
  C       65.661    1033.838    -188.047
  N       66.852    1034.387    -187.721
  N       64.934    1034.374    -188.996
  C       63.751    1033.733    -189.192
  C       63.266    1032.634    -188.549
  C       64.093    1032.013    -187.543
  O       63.856    1030.975    -186.933
  N       62.006    1032.298    -189.017
  C       61.745    1033.198    -189.947
  N       62.790    1034.067    -190.122
  O       58.518    1034.136    -192.691
  O       58.280    1034.205    -195.241
  H       65.212    1033.939    -193.347
  H       57.650    1034.590    -192.832
  H       65.879    1032.317    -186.620
  H       60.824    1033.246    -190.538
  H       63.592    1035.845    -190.797
  H       63.026    1033.564    -192.805
  H       67.452    1034.039    -186.972
  H       63.161    1035.257    -194.501
  H       67.148    1035.220    -188.205
  H       61.955    1037.248    -192.773
  H       59.754    1036.131    -193.216
  H       60.707    1036.422    -194.697
  P       65.316    1036.653    -194.513
  C       67.455    1035.274    -195.081
  O       66.366    1035.467    -194.225
  O       66.175    1037.985    -194.189
  O       64.712    1036.688    -195.882
  H       66.581    1038.332    -195.002
  H       67.585    1036.096    -195.780
  H       67.316    1034.335    -195.632
  H       68.367    1035.187    -194.482
  H       59.825    1030.447    -194.974
  H       60.589    1031.873    -195.632
  H       58.883    1031.597    -195.893

 3  4  5  6  7  8  9  10  11  12  23  26  30  31  33  0
 6-311+G(2d,p)
 ****
 35  36  37  38 0
 6-311+G(2d,p)
 ****
 1  2  13  14  15  16  17  18  19  20  21  22  24  25  27  28  29 0
 3-21G
 ****
 32  34  39  40  41  42  43  44  45  46  47  48  49 0
 3-21G
 ****


