%nproc=1
%NoSave
%Mem=1900MB
#P OB98/GEN NMR

erre ene a

0 1
  C     1161.593    2129.134    -187.035
  O     1162.765    2128.714    -186.365
  H     1160.772    2129.194    -186.303
  H     1161.320    2128.412    -187.794
  H     1161.738    2130.117    -187.471
  P     1164.103    2128.475    -187.215
  C     1165.241    2130.479    -186.060
  O     1164.842    2129.905    -187.294
  C     1165.686    2131.948    -186.273
  O     1164.539    2132.640    -186.886
  C     1166.034    2132.656    -184.971
  O     1167.335    2133.275    -185.007
  C     1164.828    2133.547    -184.715
  O     1165.090    2134.708    -183.935
  C     1164.296    2133.851    -186.111
  N     1162.875    2134.186    -186.164
  C     1162.526    2135.467    -185.774
  O     1163.310    2136.353    -185.391
  N     1161.189    2135.757    -185.797
  C     1160.185    2134.911    -186.170
  O     1158.994    2135.218    -186.202
  C     1160.608    2133.558    -186.568
  C     1161.920    2133.241    -186.532
  O     1163.914    2127.778    -188.511
  O     1165.027    2127.630    -186.242
  H     1165.425    2134.402    -183.076
  H     1165.040    2126.694    -186.502
  H     1160.915    2136.696    -185.514
  H     1159.871    2132.830    -186.861
  H     1162.272    2132.270    -186.821
  H     1164.852    2134.664    -186.561
  H     1164.075    2132.957    -184.151
  H     1166.118    2131.939    -184.135
  H     1166.517    2131.972    -187.001
  H     1166.085    2129.886    -185.665
  H     1164.422    2130.445    -185.341
  P     1168.709    2132.518    -184.789
  C     1169.197    2132.368    -187.351
  O     1169.034    2131.695    -186.127
  O     1168.815    2131.791    -183.491
  O     1169.796    2133.711    -184.805
  H     1170.498    2133.433    -184.185
  H     1169.407    2131.658    -188.123
  H     1170.010    2133.060    -187.272
  H     1168.299    2132.899    -187.589

 6  7  8  9  10  11  12  13  14  15  16  26  31  32  33  34  35 0
 6-311+G(2d,p)
 ****
 36  37 0
 6-311+G(2d,p)
 ****
 1  2  3  4  5  17  18  19  20  21  22  23  24  25 0
 3-21G
 ****
 27  28  29  30  38  39  40  41  42  43  44  45 0
 3-21G
 ****


