%nproc=1
%NoSave
%Mem=1900MB
#P OB98/GEN NMR

erre ene a

0 1
  C      187.953     216.087      95.466
  O      187.716     214.811      96.026
  H      189.008     216.341      95.606
  H      187.340     216.838      95.976
  H      187.726     216.084      94.397
  P      186.267     214.171      95.782
  C      184.841     213.712      97.939
  O      185.322     214.656      96.989
  C      185.923     213.422      98.979
  O      186.318     214.624      99.670
  C      185.470     212.496     100.097
  O      185.310     211.161      99.670
  C      186.602     212.692     101.093
  O      187.761     211.934     100.720
  C      186.875     214.212     100.950
  N      186.322     214.986     102.054
  C      187.191     215.214     103.131
  O      188.344     214.782     103.103
  N      186.716     215.901     104.223
  C      185.499     216.345     104.229
  N      185.087     217.009     105.342
  C      184.559     216.148     103.104
  C      185.031     215.461     102.064
  O      186.507     212.626      96.116
  O      185.677     214.428      94.433
  H      187.459     211.012     100.602
  H      186.906     212.473      96.990
  H      183.553     216.541     103.150
  H      184.409     215.273     101.199
  H      187.952     214.409     100.903
  H      186.325     212.373     102.101
  H      184.548     212.878     100.555
  H      186.801     213.023      98.455
  H      185.751     217.105     106.103
  H      184.522     212.787      97.446
  H      184.152     217.369     105.476
  H      183.960     214.149      98.423
  P      184.479     210.114     100.555
  C      185.905     208.086     101.247
  O      185.538     209.430     101.553
  O      183.641     209.151      99.783
  O      183.643     211.056     101.547
  H      184.184     211.630     102.120
  H      186.609     207.735     101.972
  H      186.347     208.050     100.273
  H      185.034     207.465     101.266

 6  7  8  9  10  11  12  13  14  15  16  26  30  31  32  33  35 0
 6-311+G(2d,p)
 ****
 37  38 0
 6-311+G(2d,p)
 ****
 1  2  3  4  5  17  18  19  20  21  22  23  24  25 0
 3-21G
 ****
 27  28  29  34  36  39  40  41  42  43  44  45  46 0
 3-21G
 ****


