%nproc=1
%NoSave
%Mem=1900MB
#P OB98/GEN NMR

erre ene a

0 1
  C      494.437    1517.844     707.466
  O      493.900    1516.830     708.277
  P      494.726    1516.459     709.640
  C      492.878    1517.227     711.316
  O      493.595    1516.121     710.740
  C      491.513    1516.779     711.824
  O      490.600    1516.640     710.686
  C      491.479    1515.435     712.535
  O      491.876    1515.552     713.888
  C      490.002    1515.085     712.424
  O      489.245    1515.819     713.402
  C      489.652    1515.589     711.000
  N      487.483    1513.789     706.731
  C      487.139    1514.766     707.570
  N      487.749    1515.205     708.702
  C      488.824    1514.429     708.979
  C      489.291    1513.341     708.208
  C      488.567    1513.033     707.069
  N      488.944    1512.006     706.181
  N      490.404    1512.791     708.808
  C      490.629    1513.541     709.853
  N      489.720    1514.548     709.996
  O      495.307    1517.873     710.097
  O      495.778    1515.433     709.458
  H      489.663    1515.637     714.265
  H      496.099    1517.732     710.660
  H      486.243    1515.330     707.311
  H      491.447    1513.408     710.530
  H      488.662    1516.042     710.964
  H      489.818    1514.021     712.576
  H      492.081    1514.695     712.004
  H      491.120    1517.592     712.450
  H      492.770    1518.020     710.578
  H      488.472    1511.993     705.312
  H      489.861    1511.580     706.315
  H      493.491    1517.619     712.166
  P      492.696    1514.317     714.519
  C      494.942    1515.509     713.909
  O      494.112    1514.951     714.937
  O      493.020    1513.408     713.217
  O      491.945    1513.570     715.557
  H      493.141    1512.495     713.478
  H      495.695    1516.158     714.389
  H      494.328    1516.157     713.243
  H      495.408    1514.729     713.332
  H      493.808    1517.989     706.613
  H      495.417    1517.560     707.142
  H      494.496    1518.754     708.025

 3  4  5  6  7  8  9  10  11  12  22  25  29  30  31  32 0
 6-311+G(2d,p)
 ****
 33  36  37 0
 6-311+G(2d,p)
 ****
 1  2  13  14  15  16  17  18  19  20  21  23  24  26 0
 3-21G
 ****
 27  28  34  35  38  39  40  41  42  43  44  45  46  47  48 0
 3-21G
 ****


