%nproc=1
%NoSave
%Mem=1900MB
#P OB98/GEN NMR

erre ene a

0 1
  C       -1.072      62.850      22.566
  O       -1.902      63.379      23.575
  P       -2.503      62.429      24.718
  C       -4.125      60.431      24.774
  O       -3.608      61.509      24.001
  C       -5.649      60.417      24.699
  O       -6.217      61.566      25.379
  C       -6.203      60.508      23.285
  O       -5.957      59.422      22.420
  C       -7.656      60.862      23.557
  O       -8.420      59.705      23.890
  C       -7.520      61.795      24.788
  N       -7.715      63.199      24.432
  C       -9.035      63.622      24.329
  O      -10.003      62.888      24.519
  N       -9.217      64.929      23.965
  C       -8.230      65.819      23.656
  O       -8.466      66.965      23.293
  C       -6.856      65.309      23.766
  C       -6.662      64.043      24.143
  O       -2.983      63.133      25.942
  O       -1.319      61.385      24.989
  H       -9.303      60.009      24.177
  H       -1.055      60.859      24.214
  H      -10.166      65.254      23.872
  H       -6.049      65.994      23.540
  H       -5.656      63.644      24.230
  H       -8.262      61.529      25.550
  H       -8.132      61.324      22.686
  H       -5.748      61.380      22.797
  H       -6.010      59.525      25.218
  H       -3.821      60.564      25.817
  H       -3.699      59.488      24.417
  P       -5.835      59.571      20.829
  C       -7.318      60.493      18.915
  O       -7.245      60.078      20.261
  O       -5.160      58.457      20.101
  O       -4.935      60.896      20.701
  H       -4.391      60.834      19.894
  H       -8.334      60.845      18.713
  H       -7.100      59.656      18.245
  H       -6.622      61.314      18.727
  H       -0.774      63.634      21.902
  H       -1.608      62.103      22.018
  H       -0.204      62.411      23.012

 3  4  5  6  7  8  9  10  11  12  13  23  28  29  30  31  32 0
 6-311+G(2d,p)
 ****
 33  34 0
 6-311+G(2d,p)
 ****
 1  2  14  15  16  17  18  19  20  21  22  24  25  26  27 0
 3-21G
 ****
 35  36  37  38  39  40  41  42  43  44  45 0
 3-21G
 ****


