%nproc=1
%NoSave
%Mem=1900MB
#P OB98/GEN NMR

erre ene a

0 1
  C     -779.437     811.814    -112.515
  O     -780.754     811.319    -112.564
  H     -778.719     811.017    -112.735
  H     -779.328     812.600    -113.264
  H     -779.227     812.244    -111.527
  P     -781.088     810.076    -111.598
  C     -780.649     808.308    -113.445
  O     -780.265     808.819    -112.175
  C     -780.686     806.789    -113.413
  O     -779.408     806.267    -112.989
  C     -781.705     806.192    -112.439
  O     -783.024     806.221    -112.970
  C     -781.169     804.766    -112.318
  O     -781.608     803.991    -113.447
  C     -779.654     804.971    -112.375
  N     -777.351     802.036    -108.841
  C     -777.880     801.744    -110.050
  N     -778.484     802.564    -110.928
  C     -778.506     803.833    -110.460
  C     -778.002     804.277    -109.242
  C     -777.410     803.318    -108.410
  N     -776.887     803.626    -107.166
  N     -778.190     805.642    -109.118
  C     -778.799     806.004    -110.231
  N     -779.010     804.945    -111.070
  O     -782.607     809.714    -111.952
  O     -780.912     810.337    -110.135
  H     -782.589     803.981    -113.417
  H     -783.065     809.425    -111.139
  H     -777.801     800.696    -110.359
  H     -779.082     807.026    -110.468
  H     -779.166     804.222    -113.003
  H     -781.529     804.257    -111.418
  H     -781.652     806.681    -111.463
  H     -780.869     806.429    -114.437
  H     -779.926     808.634    -114.205
  H     -776.307     802.950    -106.713
  H     -776.928     804.594    -106.861
  H     -781.635     808.704    -113.703
  P     -784.237     806.251    -111.932
  C     -784.106     803.801    -111.106
  O     -783.883     805.167    -110.804
  O     -785.431     805.557    -112.746
  O     -784.616     807.614    -111.442
  H     -786.294     805.864    -112.396
  H     -783.826     803.200    -110.266
  H     -783.518     803.523    -111.955
  H     -785.142     803.649    -111.325

 6  7  8  9  10  11  12  13  14  15  25  28  32  33  34  35 0
 6-311+G(2d,p)
 ****
 36  39  40 0
 6-311+G(2d,p)
 ****
 1  2  3  4  5  16  17  18  19  20  21  22  23  24 0
 3-21G
 ****
 26  27  29  30  31  37  38  41  42  43  44  45  46  47  48 0
 3-21G
 ****


