%nproc=1
%NoSave
%Mem=1900MB
#P OB98/GEN NMR

erre ene a

0 1
  C      475.111     -83.244     126.829
  O      475.427     -81.894     126.578
  P      474.385     -80.937     125.819
  C      476.012     -81.020     123.825
  O      474.657     -81.133     124.250
  C      476.345     -82.121     122.825
  O      475.934     -83.420     123.321
  C      475.623     -81.986     121.491
  O      475.957     -80.882     120.679
  C      475.835     -83.369     120.897
  O      477.126     -83.491     120.303
  C      475.733     -84.263     122.160
  N      474.458     -84.980     122.220
  C      474.482     -86.304     121.802
  O      475.496     -86.871     121.395
  N      473.283     -86.963     121.831
  C      472.078     -86.422     122.182
  O      471.034     -87.054     122.142
  C      472.114     -85.014     122.602
  C      473.283     -84.364     122.602
  O      474.378     -79.517     126.276
  O      472.986     -81.690     126.018
  H      477.787     -83.303     120.999
  H      472.951     -82.592     125.647
  H      473.275     -87.919     121.516
  H      471.179     -84.558     122.903
  H      473.331     -83.323     122.905
  H      476.541     -85.007     122.166
  H      475.098     -83.594     120.118
  H      474.548     -81.886     121.691
  H      477.429     -82.153     122.696
  H      476.666     -81.121     124.698
  H      476.179     -80.027     123.397
  P      474.893     -79.784     120.201
  C      476.027     -79.413     117.897
  O      474.856     -79.783     118.599
  O      474.942     -78.460     120.892
  O      473.505     -80.505     120.559
  H      472.842     -79.829     120.789
  H      475.807     -79.425     116.826
  H      476.831     -80.124     118.098
  H      476.340     -78.405     118.179
  H      475.926     -83.712     127.340
  H      474.936     -83.748     125.901
  H      474.231     -83.298     127.436

 3  4  5  6  7  8  9  10  11  12  13  23  28  29  30  31  32 0
 6-311+G(2d,p)
 ****
 33  34 0
 6-311+G(2d,p)
 ****
 1  2  14  15  16  17  18  19  20  21  22  24  25  26  27 0
 3-21G
 ****
 35  36  37  38  39  40  41  42  43  44  45 0
 3-21G
 ****


