%nproc=1
%NoSave
%Mem=1900MB
#P OB98/GEN NMR

erre ene a

0 1
  C      134.638     236.291     549.786
  O      134.280     236.961     550.979
  H      135.087     235.322     550.047
  H      135.384     236.877     549.242
  H      133.768     236.113     549.144
  P      133.345     238.264     550.879
  C      132.888     240.317     552.373
  O      133.713     239.184     552.148
  C      133.301     241.047     553.658
  O      132.915     240.233     554.803
  C      134.816     241.311     553.760
  O      134.990     242.525     554.515
  C      135.282     240.117     554.579
  O      136.553     240.342     555.138
  C      134.119     239.976     555.573
  N      134.090     238.667     556.225
  C      134.496     238.617     557.549
  O      134.902     239.602     558.165
  N      134.477     237.390     558.143
  C      134.141     236.208     557.528
  O      134.177     235.133     558.105
  C      133.769     236.311     556.113
  C      133.747     237.518     555.526
  O      131.890     238.010     550.695
  O      133.969     239.100     549.660
  H      136.508     241.042     555.822
  H      133.265     239.619     549.214
  H      134.756     237.343     559.109
  H      133.515     235.396     555.596
  H      133.485     237.627     554.480
  H      134.181     240.749     556.361
  H      135.348     239.223     553.953
  H      135.311     241.383     552.796
  H      132.734     241.987     553.729
  H      131.848     239.965     552.473
  H      132.956     240.999     551.516
  P      135.322     243.921     553.801
  C      134.630     246.289     554.614
  O      135.341     245.083     554.917
  O      134.452     244.242     552.619
  O      136.857     243.808     553.357
  H      137.028     244.377     552.577
  H      134.722     246.972     555.432
  H      133.597     246.063     554.453
  H      135.040     246.733     553.731

 6  7  8  9  10  11  12  13  14  15  16  26  31  32  33  34  35 0
 6-311+G(2d,p)
 ****
 36  37 0
 6-311+G(2d,p)
 ****
 1  2  3  4  5  17  18  19  20  21  22  23  24  25 0
 3-21G
 ****
 27  28  29  30  38  39  40  41  42  43  44  45 0
 3-21G
 ****


