%nproc=1
%NoSave
%Mem=1900MB
#P OB98/GEN NMR

erre ene a

0 1
  C      105.806     986.519    -899.339
  O      107.082     986.470    -898.689
  P      107.301     985.265    -897.659
  C      109.632     984.400    -898.439
  O      108.879     985.073    -897.429
  C      111.092     984.880    -898.439
  O      111.254     986.129    -899.129
  C      111.660     985.090    -897.039
  O      112.041     983.836    -896.479
  C      112.862     985.999    -897.339
  O      114.017     985.240    -897.739
  C      112.321     986.846    -898.499
  N      113.777     991.545    -897.189
  C      114.533     990.398    -897.309
  N      115.834     990.542    -897.119
  N      114.012     989.231    -897.659
  C      112.689     989.273    -897.839
  C      111.819     990.350    -897.759
  C      112.390     991.630    -897.389
  O      111.775     992.689    -897.269
  N      110.524     989.991    -898.069
  C      110.595     988.684    -898.209
  N      111.886     988.197    -898.159
  O      106.892     983.959    -898.529
  O      106.475     985.356    -896.419
  H      114.714     985.859    -898.009
  H      106.059     983.584    -898.199
  H      114.194     992.416    -896.909
  H      109.745     988.056    -898.409
  H      113.102     987.006    -899.289
  H      113.154     986.563    -896.459
  H      116.299     991.387    -896.849
  H      110.936     985.606    -896.419
  H      116.438     989.693    -897.209
  H      111.677     984.107    -898.969
  H      109.192     984.554    -899.429
  H      109.574     983.313    -898.229
  P      111.025     983.133    -895.479
  C      112.479     980.978    -895.479
  O      111.810     981.963    -894.709
  O      110.026     982.325    -896.469
  O      110.250     984.063    -894.619
  H      109.088     982.451    -896.159
  H      113.361     980.635    -894.909
  H      112.839     981.390    -896.419
  H      111.805     980.140    -895.639
  H      105.774     987.360    -900.000
  H      105.035     986.614    -898.604
  H      105.656     985.620    -899.899

 3  4  5  6  7  8  9  10  11  12  23  26  30  31 0
 6-311+G(2d,p)
 ****
 33  35  36  37  38 0
 6-311+G(2d,p)
 ****
 1  2  13  14  15  16  17  18  19  20  21  22  24  25 0
 3-21G
 ****
 27  28  29  32  34  39  40  41  42  43  44  45  46  47  48  49 0
 3-21G
 ****


