%nproc=1
%NoSave
%Mem=1900MB
#P OB98/GEN NMR

erre ene a

0 1
  C      268.902     444.902    -283.510
  O      267.702     444.652    -284.221
  H      268.757     445.779    -282.876
  H      269.716     445.107    -284.218
  H      269.160     444.045    -282.881
  P      267.639     443.304    -285.084
  C      268.361     444.442    -287.346
  O      268.648     443.486    -286.329
  C      269.474     444.447    -288.389
  O      270.727     444.881    -287.822
  C      269.796     443.075    -288.952
  O      268.787     442.581    -289.806
  C      271.120     443.357    -289.653
  O      270.899     443.994    -290.921
  C      271.786     444.338    -288.654
  N      272.825     443.696    -287.859
  C      274.139     443.826    -288.341
  O      274.346     444.461    -289.381
  N      275.155     443.213    -287.661
  C      274.896     442.549    -286.575
  N      275.945     441.956    -285.945
  C      273.541     442.406    -286.011
  C      272.563     442.998    -286.701
  O      266.201     443.399    -285.780
  O      267.878     442.042    -284.319
  H      270.493     443.320    -291.501
  H      266.058     444.235    -286.263
  H      273.373     441.850    -285.096
  H      271.535     442.943    -286.353
  H      272.235     445.181    -289.189
  H      271.686     442.443    -289.848
  H      270.000     442.364    -288.133
  H      269.200     445.148    -289.182
  H      276.861     442.056    -286.372
  H      268.234     445.442    -286.912
  H      275.861     441.384    -285.118
  H      267.410     444.162    -287.809
  P      268.465     441.008    -289.871
  C      269.545     440.730    -292.193
  O      269.589     440.358    -290.830
  O      267.067     440.662    -290.236
  O      268.910     440.478    -288.417
  H      269.845     440.629    -288.196
  H      270.334     440.238    -292.723
  H      269.665     441.790    -292.278
  H      268.602     440.444    -292.611

 6  7  8  9  10  11  12  13  14  15  16  26  30  31  32  33  35 0
 6-311+G(2d,p)
 ****
 37  38 0
 6-311+G(2d,p)
 ****
 1  2  3  4  5  17  18  19  20  21  22  23  24  25 0
 3-21G
 ****
 27  28  29  34  36  39  40  41  42  43  44  45  46 0
 3-21G
 ****


