%nproc=1
%NoSave
%Mem=1900MB
#P OB98/GEN NMR

erre ene a

0 1
  C       57.603    -168.858      32.075
  O       56.353    -168.251      31.749
  P       56.337    -166.976      30.775
  C       56.483    -165.139      32.565
  O       57.140    -165.777      31.478
  C       56.552    -163.607      32.473
  O       57.864    -163.125      32.867
  C       56.263    -163.046      31.074
  O       55.564    -161.809      31.255
  C       57.656    -162.800      30.529
  O       57.660    -161.906      29.427
  C       58.362    -162.303      31.793
  N       59.811    -162.374      31.688
  C       60.503    -161.167      31.583
  O       59.883    -160.108      31.479
  N       61.877    -161.197      31.569
  C       62.491    -162.338      31.509
  N       63.852    -162.326      31.517
  C       61.784    -163.630      31.435
  C       60.461    -163.575      31.554
  O       54.999    -166.604      30.230
  O       57.332    -167.419      29.596
  H       58.578    -161.605      29.264
  H       57.010    -167.041      28.754
  H       62.336    -164.550      31.304
  H       59.854    -164.467      31.519
  H       58.078    -161.266      32.016
  H       58.093    -163.750      30.195
  H       55.656    -163.712      30.454
  H       55.828    -163.196      33.187
  H       64.323    -161.431      31.543
  H       56.945    -165.462      33.502
  H       64.402    -163.175      31.525
  H       55.443    -165.483      32.605
  P       54.103    -161.640      30.611
  C       55.005    -160.145      28.687
  O       54.286    -161.301      29.057
  O       53.646    -160.221      31.210
  O       53.102    -162.690      30.966
  H       52.671    -160.183      31.223
  H       55.270    -160.220      27.629
  H       55.926    -160.046      29.267
  H       54.382    -159.257      28.832
  H       57.436    -169.688      32.729
  H       58.231    -168.141      32.561
  H       58.078    -169.199      31.179

 3  4  5  6  7  8  9  10  11  12  13  23  27  28  29  30  32 0
 6-311+G(2d,p)
 ****
 34  35 0
 6-311+G(2d,p)
 ****
 1  2  14  15  16  17  18  19  20  21  22  24  25  26 0
 3-21G
 ****
 31  33  36  37  38  39  40  41  42  43  44  45  46 0
 3-21G
 ****


