%nproc=1
%NoSave
%Mem=1900MB
#P OB98/GEN NMR

erre ene a

0 1
  C      404.110    -545.546     269.504
  O      404.694    -544.867     270.603
  P      403.700    -544.044     271.568
  C      405.262    -541.957     271.773
  O      404.628    -543.048     272.414
  C      406.346    -541.380     272.677
  O      405.769    -540.867     273.894
  C      407.408    -542.395     273.104
  O      408.373    -542.557     272.083
  C      407.945    -541.752     274.379
  O      408.910    -540.719     274.064
  C      406.676    -541.149     274.998
  N      407.269    -543.612     279.371
  C      408.204    -542.967     278.581
  N      409.467    -542.937     279.048
  N      407.922    -542.394     277.440
  C      406.619    -542.515     277.087
  C      405.603    -543.152     277.777
  C      405.922    -543.726     279.062
  O      405.113    -544.223     279.846
  N      404.413    -543.083     277.091
  C      404.707    -542.391     276.006
  N      406.024    -542.001     275.969
  O      403.231    -545.145     272.623
  O      402.555    -543.379     270.873
  H      409.583    -541.085     273.461
  H      402.353    -545.502     272.383
  H      407.544    -544.015     280.255
  H      403.996    -542.121     275.240
  H      406.877    -540.188     275.496
  H      408.463    -542.472     275.014
  H      409.766    -543.374     279.911
  H      406.935    -543.354     273.354
  H      410.171    -542.467     278.484
  H      406.815    -540.538     272.154
  H      404.515    -541.180     271.567
  H      405.688    -542.297     270.822
  P      408.649    -544.047     271.552
  C      411.167    -543.995     272.196
  O      410.201    -544.132     271.170
  O      407.900    -544.076     270.138
  O      408.151    -545.125     272.454
  H      407.515    -544.959     269.988
  H      412.053    -544.576     271.926
  H      410.789    -544.365     273.162
  H      411.444    -542.948     272.297
  H      404.874    -546.049     268.948
  H      403.615    -544.840     268.871
  H      403.401    -546.262     269.863

 3  4  5  6  7  8  9  10  11  12  23  26  30  31 0
 6-311+G(2d,p)
 ****
 33  35  36  37  38 0
 6-311+G(2d,p)
 ****
 1  2  13  14  15  16  17  18  19  20  21  22  24  25 0
 3-21G
 ****
 27  28  29  32  34  39  40  41  42  43  44  45  46  47  48  49 0
 3-21G
 ****


