%nproc=1
%NoSave
%Mem=1900MB
#P OB98/GEN NMR

erre ene a

0 1
  C      -23.935     -18.504      -2.760
  O      -23.788     -18.816      -4.131
  H      -24.463     -17.552      -2.671
  H      -22.954     -18.409      -2.288
  H      -24.517     -19.280      -2.256
  P      -23.051     -20.197      -4.479
  C      -20.577     -20.942      -4.766
  O      -21.476     -19.897      -4.419
  C      -19.454     -20.386      -5.636
  O      -19.990     -19.957      -6.910
  C      -18.771     -19.158      -5.050
  O      -17.841     -19.489      -4.036
  C      -18.130     -18.559      -6.291
  O      -16.876     -19.187      -6.587
  C      -19.156     -18.876      -7.385
  N      -20.096     -15.348     -10.951
  C      -19.281     -16.425     -10.940
  N      -19.096     -17.325      -9.952
  C      -19.886     -17.044      -8.902
  C      -20.769     -15.986      -8.771
  C      -20.864     -15.109      -9.863
  N      -21.674     -13.999      -9.866
  N      -21.371     -16.008      -7.529
  C      -20.869     -17.065      -6.924
  N      -19.971     -17.724      -7.716
  O      -23.345     -20.379      -6.042
  O      -23.506     -21.375      -3.686
  H      -17.045     -20.149      -6.583
  H      -24.080     -21.009      -6.163
  H      -18.691     -16.577     -11.839
  H      -21.116     -17.387      -5.920
  H      -18.681     -19.216      -8.313
  H      -17.944     -17.494      -6.157
  H      -19.523     -18.455      -4.668
  H      -18.727     -21.185      -5.823
  H      -21.116     -21.715      -5.323
  H      -20.173     -21.381      -3.848
  H      -21.642     -13.376     -10.656
  H      -22.164     -13.747      -9.017
  P      -17.793     -18.556      -2.734
  C      -17.512     -15.988      -2.379
  O      -17.252     -17.121      -3.197
  O      -16.586     -19.159      -1.874
  O      -19.064     -18.514      -1.954
  H      -16.791     -19.090      -0.922
  H      -17.085     -15.117      -2.830
  H      -17.078     -16.139      -1.413
  H      -18.569     -15.856      -2.278

 6  7  8  9  10  11  12  13  14  15  25  28  32  33  34  35 0
 6-311+G(2d,p)
 ****
 36  37  40 0
 6-311+G(2d,p)
 ****
 1  2  3  4  5  16  17  18  19  20  21  22  23  24 0
 3-21G
 ****
 26  27  29  30  31  38  39 41  42  43  44  45  46  47  48 0
 3-21G
 ****


