%nproc=1
%NoSave
%Mem=1900MB
#P OB98/GEN NMR

erre ene a

0 1
  C       -6.070      17.184      24.346
  O       -5.309      18.304      24.745
  H       -5.503      16.277      24.578
  H       -6.253      17.214      23.269
  H       -7.021      17.148      24.884
  P       -5.965      19.762      24.640
  C       -5.224      19.691      22.173
  O       -5.315      20.472      23.357
  C       -4.129      20.246      21.267
  O       -4.029      19.457      20.060
  C       -4.378      21.679      20.806
  O       -4.107      22.596      21.847
  C       -3.437      21.753      19.613
  O       -2.081      21.966      20.037
  C       -3.599      20.343      19.000
  N       -4.539      20.315      17.878
  C       -4.174      21.050      16.755
  O       -3.132      21.697      16.682
  N       -5.078      21.052      15.725
  C       -6.318      20.483      15.750
  O       -7.177      20.693      14.899
  C       -6.617      19.658      16.931
  C       -5.735      19.625      17.932
  O       -5.943      20.575      25.891
  O       -7.465      19.465      24.160
  H       -8.066      19.523      24.928
  H       -1.552      22.085      19.224
  H       -4.844      21.622      14.923
  H       -7.566      19.136      16.961
  H       -5.948      19.049      18.826
  H       -2.632      19.966      18.644
  H       -3.691      22.570      18.934
  H       -5.409      21.786      20.450
  H       -3.173      20.170      21.800
  H       -6.186      19.735      21.652
  H       -5.014      18.651      22.444
  P       -5.163      23.730      22.247
  C       -3.983      25.728      21.161
  O       -4.376      25.119      22.383
  O       -6.037      23.396      23.410
  O       -6.037      23.940      20.920
  H       -6.984      23.848      21.142
  H       -3.469      26.643      21.368
  H       -4.851      25.932      20.569
  H       -3.334      25.067      20.626

 6  7  8  9  10  11  12  13  14  15  16  27  31  32  33  34  35 0
 6-311+G(2d,p)
 ****
 36  37 0
 6-311+G(2d,p)
 ****
 1  2  3  4  5  17  18  19  20  21  22  23  24  25 0
 3-21G
 ****
 26  28  29  30  38  39  40  41  42  43  44  45 0
 3-21G
 ****


