%nproc=1
%NoSave
%Mem=1900MB
#P OB98/GEN NMR

erre ene a

0 1
  C      103.267     126.315    -118.326
  O      104.659     126.182    -118.121
  H      102.785     126.680    -117.414
  H      103.096     127.038    -119.127
  H      102.832     125.354    -118.619
  P      105.122     125.135    -116.997
  C      105.188     125.172    -114.402
  O      104.689     125.772    -115.588
  C      104.399     125.664    -113.193
  O      103.024     125.237    -113.287
  C      104.899     125.143    -111.849
  O      106.030     125.868    -111.390
  C      103.680     125.398    -110.974
  O      103.635     126.788    -110.600
  C      102.525     125.072    -111.934
  N       98.311     122.172    -111.783
  C       98.492     123.489    -112.024
  N       99.648     124.185    -112.068
  C      100.696     123.376    -111.847
  C      100.673     122.011    -111.608
  C       99.408     121.401    -111.573
  N       99.232     120.062    -111.257
  N      101.951     121.528    -111.411
  C      102.729     122.585    -111.512
  N      102.018     123.723    -111.781
  O      106.719     125.284    -117.009
  O      104.697     123.723    -117.227
  H      102.807     126.917    -110.101
  H      107.102     124.577    -117.560
  H       97.588     124.062    -112.203
  H      103.804     122.576    -111.394
  H      101.682     125.762    -111.814
  H      103.685     124.813    -110.051
  H      105.096     124.065    -111.884
  H      104.406     126.763    -113.210
  H      106.243     125.435    -114.277
  H       98.338     119.866    -110.814
  H      100.048     119.617    -110.856
  H      105.099     124.085    -114.497
  P      106.413     125.748    -109.837
  C      106.073     127.252    -107.760
  O      105.660     126.951    -109.087
  O      107.952     126.189    -109.816
  O      106.230     124.396    -109.238
  H      108.492     125.484    -109.409
  H      105.493     128.068    -107.382
  H      107.109     127.521    -107.761
  H      105.928     126.394    -107.138

 6  7  8  9  10  11  12  13  14  15  25  28  32  33  34  35 0
 6-311+G(2d,p)
 ****
 36  39  40 0
 6-311+G(2d,p)
 ****
 1  2  3  4  5  16  17  18  19  20  21  22  23  24 0
 3-21G
 ****
 26  27  29  30  31  37  38  41  42  43  44  45  46  47  48 0
 3-21G
 ****


