%nproc=1
%NoSave
%Mem=1900MB
#P OB98/GEN NMR

erre ene a

0 1
  C     -190.299    -884.989      92.571
  O     -189.304    -884.004      92.808
  P     -187.768    -884.473      92.744
  C     -186.648    -886.444      94.023
  O     -187.514    -885.308      94.081
  C     -186.729    -887.251      95.311
  O     -188.033    -887.836      95.447
  C     -185.743    -888.408      95.381
  O     -184.445    -887.927      95.690
  C     -186.367    -889.262      96.475
  O     -185.930    -888.834      97.783
  C     -187.878    -889.014      96.284
  N     -188.565    -890.163      95.727
  C     -188.879    -891.183      96.636
  O     -188.540    -891.083      97.814
  N     -189.516    -892.305      96.167
  C     -189.812    -892.400      94.905
  N     -190.451    -893.530      94.502
  C     -189.492    -891.357      93.914
  C     -188.871    -890.275      94.385
  O     -186.968    -883.113      92.999
  O     -187.375    -885.144      91.473
  H     -186.411    -889.405      98.413
  H     -186.076    -883.155      92.587
  H     -189.762    -891.482      92.880
  H     -188.587    -889.462      93.729
  H     -188.350    -888.761      97.240
  H     -186.082    -890.313      96.380
  H     -185.730    -888.957      94.433
  H     -186.580    -886.555      96.160
  H     -190.654    -894.235      95.204
  H     -185.618    -886.101      93.882
  H     -190.747    -893.692      93.546
  H     -186.938    -887.055      93.156
  P     -183.210    -888.906      95.405
  C     -183.064    -891.429      95.792
  O     -183.482    -890.191      96.317
  O     -182.014    -888.178      96.192
  O     -182.864    -889.168      93.975
  H     -181.175    -888.634      96.014
  H     -183.160    -892.200      96.566
  H     -182.012    -891.383      95.478
  H     -183.694    -891.714      94.938
  H     -191.268    -884.542      92.644
  H     -190.210    -885.768      93.299
  H     -190.168    -885.399      91.591

 3  4  5  6  7  8  9  10  11  12  13  21  23  27  28  29  30  32 0
 6-311+G(2d,p)
 ****
 34  35 0
 6-311+G(2d,p)
 ****
 1  2  14  15  16  17  18  19  20  22  24  25  26 0
 3-21G
 ****
 31  33  36  37  38  39  40  41  42  43  44  45  46 0
 3-21G
 ****


