%nproc=1
%NoSave
%Mem=1900MB
#P OB98/GEN NMR

erre ene a

0 1
  C     -427.878     331.717     -50.357
  O     -427.454     333.044     -50.120
  H     -428.069     331.235     -49.398
  H     -427.095     331.161     -50.881
  H     -428.801     331.701     -50.945
  P     -427.282     334.034     -51.370
  C     -429.677     334.926     -50.998
  O     -428.301     335.251     -51.139
  C     -430.559     336.082     -51.484
  O     -431.959     335.647     -51.450
  C     -430.462     337.358     -50.623
  O     -430.711     338.471     -51.497
  C     -431.616     337.145     -49.660
  O     -431.930     338.299     -48.922
  C     -432.671     336.611     -50.643
  N     -433.845     336.005     -50.033
  C     -435.081     336.591     -50.281
  O     -435.251     337.586     -50.987
  N     -436.158     335.992     -49.681
  C     -436.124     334.881     -48.889
  O     -437.121     334.367     -48.406
  C     -434.786     334.309     -48.656
  C     -433.732     334.884     -49.231
  O     -427.351     333.399     -52.719
  O     -425.855     334.721     -51.115
  H     -425.187     334.302     -51.688
  H     -432.525     338.056     -48.183
  H     -437.061     336.403     -49.859
  H     -434.721     333.435     -48.025
  H     -432.732     334.473     -49.087
  H     -432.992     337.417     -51.316
  H     -431.350     336.380     -48.922
  H     -429.489     337.482     -50.145
  H     -430.322     336.291     -52.533
  H     -429.875     334.732     -49.935
  H     -429.893     334.018     -51.572
  P     -429.582     339.526     -51.928
  C     -428.305     337.898     -53.478
  O     -429.036     339.112     -53.380
  O     -428.502     339.709     -50.911
  O     -430.365     340.899     -52.189
  H     -429.762     341.651     -52.044
  H     -428.003     337.745     -54.493
  H     -428.923     337.083     -53.163
  H     -427.439     337.952     -52.852

 6  7  8  9  10  11  12  13  14  15  16  27  31  32  33  34  35 0
 6-311+G(2d,p)
 ****
 36  37 0
 6-311+G(2d,p)
 ****
 1  2  3  4  5  17  18  19  20  21  22  23  24  25 0
 3-21G
 ****
 26  28  29  30  38  39  40  41  42  43  44  45 0
 3-21G
 ****


