%nproc=1
%NoSave
%Mem=1900MB
#P OB98/GEN NMR

erre ene a

0 1
  C      -69.192     -18.704     -27.312
  O      -69.025     -19.148     -25.980
  H      -69.657     -19.489     -27.914
  H      -69.844     -17.826     -27.312
  H      -68.226     -18.427     -27.743
  P      -68.107     -20.449     -25.775
  C      -65.848     -19.211     -26.026
  O      -66.711     -19.937     -25.163
  C      -64.707     -18.591     -25.224
  O      -65.281     -17.676     -24.252
  C      -63.844     -19.614     -24.465
  O      -62.453     -19.390     -24.725
  C      -64.117     -19.317     -23.002
  O      -62.980     -19.525     -22.172
  C      -64.549     -17.856     -23.032
  N      -64.419     -16.042     -18.270
  C      -63.541     -15.935     -19.290
  N      -63.678     -16.358     -20.563
  C      -64.885     -16.919     -20.750
  C      -65.893     -17.077     -19.814
  C      -65.615     -16.627     -18.511
  N      -66.489     -16.787     -17.458
  N      -66.990     -17.705     -20.374
  C      -66.633     -17.960     -21.617
  N      -65.364     -17.517     -21.885
  O      -67.731     -20.871     -27.275
  O      -68.768     -21.565     -25.041
  H      -63.196     -19.172     -21.290
  H      -68.079     -21.767     -27.445
  H      -62.598     -15.449     -19.050
  H      -67.228     -18.498     -22.344
  H      -63.686     -17.178     -23.055
  H      -64.928     -19.967     -22.651
  H      -64.099     -20.647     -24.717
  H      -64.085     -17.993     -25.901
  H      -66.412     -18.412     -26.520
  H      -66.163     -16.542     -16.537
  H      -67.334     -17.321     -17.610
  H      -65.454     -19.889     -26.791
  P      -61.602     -20.676     -25.187
  C      -61.745     -19.727     -27.602
  O      -60.931     -20.342     -26.610
  O      -62.732     -21.755     -25.533
  O      -60.664     -21.183     -24.144
  H      -62.589     -22.566     -25.007
  H      -61.167     -19.567     -28.488
  H      -62.105     -18.788     -27.236
  H      -62.575     -20.364     -27.828

 6  7  8  9  10  11  12  13  14  15  25  28  32  33  34  35 0
 6-311+G(2d,p)
 ****
 36  39  40 0
 6-311+G(2d,p)
 ****
 1  2  3  4  5  16  17  18  19  20  21  22  23  24 0
 3-21G
 ****
 26  27  29  30  31  37  38  41  42  43  44  45  46  47  48 0
 3-21G
 ****


