%nproc=1
%NoSave
%Mem=1900MB
#P OB98/GEN NMR

erre ene a

0 1
  C       94.163     702.238     111.361
  O       94.260     703.093     112.482
  P       94.362     704.675     112.282
  C       96.221     704.875     114.063
  O       94.932     705.317     113.647
  C       96.370     705.016     115.581
  O       96.225     706.400     115.991
  C       95.333     704.249     116.372
  O       95.562     702.851     116.352
  C       95.470     704.913     117.740
  O       96.598     704.370     118.462
  C       95.751     706.379     117.349
  N       94.580     707.228     117.530
  C       94.803     708.444     118.187
  O       95.906     708.714     118.650
  N       93.755     709.325     118.304
  C       92.568     708.970     117.913
  N       91.571     709.905     117.990
  C       92.266     707.632     117.366
  C       93.309     706.827     117.176
  O       93.138     705.339     111.745
  O       95.602     704.858     111.271
  H       95.330     705.444     110.546
  H       96.327     703.479     118.788
  H       91.238     707.356     117.099
  H       93.195     705.834     116.755
  H       96.576     706.780     117.948
  H       94.585     704.766     118.368
  H       94.328     704.462     115.974
  H       97.382     704.686     115.848
  H       91.815     710.807     118.372
  H       96.982     705.486     113.558
  H       90.729     709.850     117.439
  H       96.355     703.829     113.763
  P       94.383     701.923     115.764
  C       94.986     700.309     117.697
  O       94.600     700.457     116.337
  O       94.765     701.804     114.211
  O       93.000     702.477     115.943
  H       93.947     701.784     113.665
  H       94.740     699.284     118.010
  H       94.437     701.011     118.337
  H       96.054     700.468     117.795
  H       94.104     701.222     111.691
  H       95.027     702.362     110.742
  H       93.285     702.482     110.801

 3  4  5  6  7  8  9  10  11  12  13  24  27  28  29  30  32 0
 6-311+G(2d,p)
 ****
 34  35 0
 6-311+G(2d,p)
 ****
 1  2  14  15  16  17  18  19  20  21  22  23  25  26 0
 3-21G
 ****
 31  33  36  37  38  39  40  41  42  43  44  45  46 0
 3-21G
 ****


