%nproc=1
%NoSave
%Mem=1900MB
#P OB98/GEN NMR

erre ene a

0 1
  C     -363.654     -31.221     184.555
  O     -362.399     -30.584     184.376
  P     -361.545     -30.801     183.034
  C     -359.319     -30.822     184.348
  O     -360.103     -30.175     183.356
  C     -358.006     -30.067     184.544
  O     -357.249     -30.088     183.319
  C     -358.171     -28.596     184.906
  O     -358.540     -28.444     186.268
  C     -356.798     -28.053     184.532
  O     -355.846     -28.347     185.566
  C     -356.465     -28.872     183.267
  N     -356.718     -28.136     182.034
  C     -355.645     -27.406     181.512
  O     -354.548     -27.402     182.071
  N     -355.828     -26.717     180.339
  C     -356.981     -26.733     179.748
  N     -357.086     -26.089     178.555
  C     -358.154     -27.444     180.293
  C     -357.951     -28.121     181.422
  O     -362.188     -30.282     181.792
  O     -361.242     -32.368     182.999
  H     -356.219     -27.997     186.400
  H     -361.945     -32.896     182.546
  H     -359.102     -27.418     179.772
  H     -358.757     -28.685     181.875
  H     -355.416     -29.186     183.284
  H     -356.788     -26.971     184.367
  H     -358.936     -28.132     184.274
  H     -357.424     -30.587     185.316
  H     -356.220     -25.769     178.137
  H     -359.100     -31.840     184.011
  H     -357.840     -26.292     177.909
  H     -359.889     -30.874     185.281
  P     -359.746     -27.442     186.602
  C     -358.432     -26.148     188.424
  O     -359.531     -26.989     188.128
  O     -361.023     -28.406     186.646
  O     -359.914     -26.329     185.621
  H     -361.530     -28.336     185.816
  H     -358.564     -25.747     189.433
  H     -358.378     -25.314     187.719
  H     -357.503     -26.724     188.394
  H     -364.059     -30.950     185.507
  H     -363.525     -32.282     184.512
  H     -364.325     -30.911     183.781

 3  4  5  6  7  8  9  10  11  12  13  23  27  28  29  30  32 0
 6-311+G(2d,p)
 ****
 34  35 0
 6-311+G(2d,p)
 ****
 1  2  14  15  16  17  18  19  20  21  22  24  25  26 0
 3-21G
 ****
 31  33  36  37  38  39  40  41  42  43  44  45  46 0
 3-21G
 ****


