%nproc=1
%NoSave
%Mem=1900MB
#P OB98/GEN NMR

erre ene a

0 1
  C     -165.943    -327.731    -764.232
  O     -165.734    -328.622    -765.306
  P     -165.559    -328.084    -766.808
  C     -167.545    -329.610    -767.445
  O     -166.208    -329.214    -767.750
  C     -168.086    -330.555    -768.523
  O     -168.375    -329.836    -769.730
  C     -167.116    -331.668    -768.908
  O     -167.093    -332.686    -767.928
  C     -167.690    -332.097    -770.258
  O     -168.789    -333.009    -770.091
  C     -168.189    -330.743    -770.839
  N     -167.273    -330.210    -771.840
  C     -167.127    -330.972    -773.014
  O     -167.732    -332.045    -773.127
  N     -166.284    -330.522    -773.997
  C     -165.617    -329.424    -773.806
  N     -164.785    -329.031    -774.808
  C     -165.713    -328.602    -772.582
  C     -166.554    -329.055    -771.648
  O     -164.181    -327.653    -767.182
  O     -166.641    -326.898    -766.891
  H     -168.411    -333.799    -769.630
  H     -166.331    -326.095    -766.391
  H     -165.138    -327.706    -772.470
  H     -166.694    -328.511    -770.705
  H     -169.183    -330.871    -771.307
  H     -166.933    -332.591    -770.882
  H     -166.111    -331.245    -769.057
  H     -169.027    -330.992    -768.144
  H     -164.715    -329.638    -775.625
  H     -168.164    -328.710    -767.422
  H     -164.188    -328.210    -774.758
  H     -167.571    -330.074    -766.458
  P     -165.829    -332.823    -766.953
  C     -165.399    -335.358    -767.078
  O     -165.887    -334.275    -766.288
  O     -165.639    -331.695    -765.995
  O     -164.587    -332.939    -767.956
  H     -163.873    -332.375    -767.631
  H     -165.188    -336.203    -766.414
  H     -164.488    -335.066    -767.603
  H     -166.171    -335.652    -767.801
  H     -166.034    -328.285    -763.321
  H     -166.840    -327.173    -764.401
  H     -165.113    -327.059    -764.159

 3  4  5  6  7  8  9  10  11  12  13  23  27  28  29  30  32 0
 6-311+G(2d,p)
 ****
 34  35 0
 6-311+G(2d,p)
 ****
 1  2  14  15  16  17  18  19  20  21  22  24  25  26 0
 3-21G
 ****
 31  33  36  37  38  39  40  41  42  43  44  45  46 0
 3-21G
 ****


