%nproc=1
%NoSave
%Mem=1900MB
#P OB98/GEN NMR

erre ene a

0 1
  C       53.007      29.523    -122.698
  O       51.891      30.357    -122.443
  H       53.915      30.131    -122.664
  H       52.916      29.078    -123.693
  H       53.078      28.737    -121.941
  P       50.487      29.620    -122.218
  C       48.856      28.260    -123.758
  O       49.949      29.163    -123.664
  C       48.528      27.984    -125.223
  O       49.611      27.283    -125.866
  C       47.333      27.069    -125.435
  O       46.105      27.703    -125.151
  C       47.507      26.711    -126.904
  O       46.942      27.709    -127.763
  C       49.048      26.670    -127.051
  N       49.534      25.319    -127.260
  C       50.103      25.072    -128.517
  O       50.182      25.980    -129.347
  N       50.528      23.802    -128.809
  C       50.374      22.855    -127.938
  N       50.788      21.611    -128.303
  C       49.778      23.070    -126.602
  C       49.381      24.314    -126.333
  O       49.518      30.831    -121.833
  O       50.514      28.516    -121.213
  H       47.093      28.570    -127.321
  H       49.577      31.588    -122.439
  H       49.684      22.247    -125.907
  H       48.933      24.561    -125.377
  H       49.368      27.285    -127.904
  H       47.016      25.765    -127.150
  H       47.451      26.149    -124.843
  H       48.386      28.949    -125.729
  H       51.140      21.496    -129.246
  H       47.978      28.663    -123.242
  H       50.647      20.785    -127.740
  H       49.144      27.334    -123.249
  P       44.706      27.017    -125.520
  C       43.469      26.347    -127.682
  O       44.617      26.981    -127.127
  O       43.509      27.604    -124.853
  O       44.957      25.473    -125.169
  H       45.687      25.054    -125.661
  H       43.522      26.385    -128.750
  H       42.587      26.853    -127.350
  H       43.436      25.326    -127.363

 6  7  8  9  10  11  12  13  14  15  16  26  30  31  32  33  35 0
 6-311+G(2d,p)
 ****
 37  38 0
 6-311+G(2d,p)
 ****
 1  2  3  4  5  17  18  19  20  21  22  23  24  25 0
 3-21G
 ****
 27  28  29  34  36  39  40  41  42  43  44  45  46 0
 3-21G
 ****


