%nproc=1
%NoSave
%Mem=1900MB
#P OB98/GEN NMR

erre ene a

0 1
  C      610.425     621.361    -700.574
  O      610.437     622.468    -699.696
  P      611.748     623.336    -699.390
  C      610.620     625.319    -700.628
  O      611.789     624.556    -700.439
  C      610.722     626.733    -700.042
  O      611.895     627.393    -700.567
  C      609.523     627.579    -700.497
  O      608.294     627.508    -699.809
  C      610.079     628.988    -700.674
  O      609.827     629.822    -699.540
  C      611.581     628.768    -700.830
  N      612.641     632.523    -704.077
  C      612.413     632.579    -702.715
  N      612.262     633.828    -702.198
  N      612.318     631.536    -701.961
  C      612.400     630.361    -702.624
  C      612.636     630.163    -703.962
  C      612.783     631.338    -704.806
  O      612.899     631.321    -706.025
  N      612.567     628.841    -704.310
  C      612.259     628.224    -703.189
  N      612.099     629.105    -702.143
  O      612.999     622.577    -699.100
  O      611.313     624.087    -698.029
  H      608.898     629.705    -699.283
  H      612.111     624.192    -697.477
  H      612.625     633.362    -704.644
  H      612.100     627.160    -703.089
  H      612.146     629.369    -700.105
  H      609.622     629.488    -701.536
  H      612.178     634.642    -702.788
  H      609.267     627.252    -701.513
  H      611.921     633.901    -701.244
  H      610.858     626.703    -698.962
  H      609.793     624.772    -700.180
  H      610.407     625.401    -701.708
  P      606.916     626.902    -700.361
  C      606.262     625.586    -698.269
  O      606.650     625.507    -699.636
  O      607.267     626.461    -701.868
  O      605.762     627.854    -700.345
  H      606.449     626.411    -702.402
  H      606.400     624.608    -697.795
  H      605.198     625.857    -698.200
  H      606.868     626.327    -697.725
  H      609.439     620.948    -700.613
  H      611.109     620.618    -700.221
  H      610.718     621.679    -701.553

 3  4  5  6  7  8  9  10  11  12  23  26  30  31 0
 6-311+G(2d,p)
 ****
 33  35  36  37  38 0
 6-311+G(2d,p)
 ****
 1  2  13  14  15  16  17  18  19  20  21  22  24  25 0
 3-21G
 ****
 27  28  29  32  34  39  40  41  42  43  44  45  46  47  48  49 0
 3-21G
 ****


