%nproc=1
%NoSave
%Mem=1900MB
#P OB98/GEN NMR

erre ene a

0 1
  C       72.169      53.824       7.444
  O       71.538      54.844       8.200
  P       72.398      55.983       8.919
  C       74.621      55.995      10.316
  O       73.505      55.282       9.828
  C       75.101      55.334      11.615
  O       74.102      55.477      12.645
  C       75.370      53.845      11.422
  O       76.741      53.616      11.136
  C       74.920      53.253      12.743
  O       75.951      53.397      13.737
  C       73.710      54.152      13.092
  N       72.406      53.831      12.480
  C       71.920      52.528      12.540
  O       72.501      51.608      13.107
  N       70.730      52.307      11.892
  C       69.985      53.252      11.250
  O       69.064      53.004      10.479
  C       70.409      54.639      11.456
  C       71.592      54.861      12.030
  O       71.373      56.589       9.987
  O       72.953      57.035       8.015
  H       76.255      54.321      13.704
  H       70.969      57.410       9.649
  H       70.442      51.337      11.812
  H       69.774      55.432      11.085
  H       71.945      55.880      12.159
  H       73.555      54.198      14.176
  H       74.733      52.184      12.654
  H       74.731      53.444      10.623
  H       76.012      55.844      11.956
  H       74.348      57.040      10.497
  H       75.424      55.994       9.572
  P       77.147      52.723       9.873
  C       76.491      50.379       9.070
  O       76.528      51.272      10.165
  O       78.594      52.741       9.509
  O       76.230      53.312       8.698
  H       76.748      53.947       8.160
  H       76.221      49.386       9.436
  H       77.469      50.326       8.583
  H       75.735      50.708       8.351
  H       71.427      53.164       7.047
  H       72.836      53.273       8.074
  H       72.721      54.265       6.640

 3  4  5  6  7  8  9  10  11  12  13  23  28  29  30  31  32 0
 6-311+G(2d,p)
 ****
 33  34 0
 6-311+G(2d,p)
 ****
 1  2  14  15  16  17  18  19  20  21  22  24  25  26  27 0
 3-21G
 ****
 35  36  37  38  39  40  41  42  43  44  45 0
 3-21G
 ****


