%nproc=1
%NoSave
%Mem=1900MB
#P OB98/GEN NMR

erre ene a

0 1
  C      182.963    -684.285     227.449
  O      184.216    -683.624     227.303
  P      185.523    -684.416     227.775
  C      186.998    -683.043     226.140
  O      186.758    -683.427     227.491
  C      188.087    -681.972     226.074
  O      189.316    -682.504     226.589
  C      188.402    -681.482     224.669
  O      187.471    -680.506     224.224
  C      189.774    -680.856     224.884
  O      189.635    -679.531     225.414
  C      190.407    -681.798     225.931
  N      195.197    -682.742     224.601
  C      194.648    -681.617     225.172
  N      195.499    -680.600     225.451
  N      193.376    -681.491     225.444
  C      192.652    -682.585     225.143
  C      193.076    -683.770     224.564
  C      194.479    -683.883     224.225
  O      195.020    -684.825     223.665
  N      192.056    -684.667     224.422
  C      191.011    -684.051     224.948
  N      191.318    -682.774     225.369
  O      185.694    -685.549     226.647
  O      185.457    -685.004     229.145
  H      189.216    -678.983     224.720
  H      186.185    -686.306     227.016
  H      196.190    -682.792     224.431
  H      190.020    -684.488     225.046
  H      190.933    -681.230     226.705
  H      190.353    -680.766     223.955
  H      196.507    -680.696     225.389
  H      188.490    -682.317     223.967
  H      195.116    -679.787     225.910
  H      187.780    -681.135     226.720
  H      186.073    -682.642     225.706
  H      187.292    -683.932     225.569
  P      187.228    -680.434     222.631
  C      184.951    -679.430     223.386
  O      186.007    -679.405     222.447
  O      186.603    -681.857     222.280
  O      188.462    -680.147     221.829
  H      186.780    -682.085     221.350
  H      185.320    -679.632     224.398
  H      184.227    -680.195     223.108
  H      184.456    -678.451     223.381
  H      182.180    -683.647     227.097
  H      182.799    -684.515     228.481
  H      182.969    -685.190     226.879

 3  4  5  6  7  8  9  10  11  12  23  26  30  31  33  0
 6-311+G(2d,p)
 ****
 35  36  37  38 0
 6-311+G(2d,p)
 ****
 1  2  13  14  15  16  17  18  19  20  21  22  24  25  27  28  29 0
 3-21G
 ****
 32  34  39  40  41  42  43  44  45  46  47  48  49 0
 3-21G
 ****


