%nproc=1
%NoSave
%Mem=1900MB
#P OB98/GEN NMR

erre ene a

0 1
  C      397.223     761.944    -682.483
  O      398.516     761.780    -683.023
  H      396.996     763.012    -682.435
  H      397.177     761.533    -681.469
  H      396.478     761.458    -683.117
  P      399.125     760.302    -683.139
  C      399.373     760.575    -685.693
  O      398.827     759.795    -684.635
  C      398.627     760.279    -687.004
  O      397.211     760.488    -686.754
  C      399.053     761.209    -688.148
  O      399.449     760.507    -689.323
  C      397.895     762.188    -688.259
  O      397.728     762.768    -689.541
  C      396.695     761.358    -687.779
  N      395.594     762.159    -687.264
  C      394.618     762.569    -688.168
  O      394.601     762.286    -689.367
  N      393.603     763.334    -687.651
  C      393.476     763.724    -686.352
  O      392.543     764.405    -685.945
  C      394.543     763.284    -685.444
  C      395.539     762.531    -685.936
  O      398.717     759.352    -682.064
  O      400.708     760.533    -683.144
  H      396.917     763.307    -689.521
  H      401.071     760.316    -682.266
  H      392.884     763.626    -688.298
  H      394.492     763.585    -684.409
  H      396.352     762.190    -685.294
  H      396.308     760.744    -688.597
  H      398.068     763.015    -687.551
  H      399.967     761.773    -687.876
  H      398.773     759.226    -687.262
  H      400.431     760.316    -685.791
  H      399.288     761.641    -685.450
  P      400.856     759.785    -689.519
  C      399.963     757.329    -689.727
  O      400.726     758.280    -688.993
  O      402.056     760.558    -689.070
  O      400.964     759.620    -691.125
  H      401.915     759.691    -691.346
  H      399.991     756.385    -689.225
  H      400.374     757.223    -690.709
  H      398.949     757.664    -689.799

 6  7  8  9  10  11  12  13  14  15  16  26  31  32  33  34  35 0
 6-311+G(2d,p)
 ****
 36  37 0
 6-311+G(2d,p)
 ****
 1  2  3  4  5  17  18  19  20  21  22  23  24  25 0
 3-21G
 ****
 27  28  29  30  38  39  40  41  42  43  44  45 0
 3-21G
 ****


