%nproc=1
%NoSave
%Mem=1900MB
#P OB98/GEN NMR

erre ene a

0 1
  C      242.584    -891.110      73.492
  O      241.873    -890.910      72.258
  P      240.580    -891.800      71.983
  C      241.852    -893.030      70.036
  O      241.119    -893.120      71.248
  C      242.581    -894.330      69.735
  O      241.691    -895.460      69.933
  C      243.110    -894.450      68.315
  O      244.256    -893.650      68.108
  C      243.341    -895.930      68.221
  O      244.581    -896.290      68.834
  C      242.173    -896.520      69.055
  N      241.096    -897.070      68.247
  C      240.988    -898.460      68.274
  O      241.732    -899.200      68.915
  N      239.978    -898.970      67.513
  C      239.095    -898.290      66.730
  O      238.205    -898.810      66.101
  C      239.313    -896.830      66.719
  C      240.262    -896.300      67.459
  O      239.873    -890.960      70.822
  O      239.759    -892.020      73.203
  H      240.507    -890.530      70.215
  H      244.620    -897.290      68.870
  H      239.860    -900.000      67.530
  H      238.650    -896.240      66.071
  H      240.454    -895.230      67.445
  H      242.546    -897.300      69.744
  H      243.386    -896.300      67.198
  H      242.334    -894.160      67.614
  H      243.428    -894.400      70.461
  H      242.584    -892.200      70.121
  H      241.163    -892.770      69.218
  P      244.016    -892.200      67.439
  C      244.175    -893.220      65.038
  O      243.424    -892.450      65.966
  O      245.530    -891.720      67.188
  O      243.208    -891.270      68.279
  H      246.080    -892.420      66.805
  H      243.486    -893.600      64.265
  H      244.642    -894.070      65.517
  H      244.932    -892.580      64.572
  H      243.422    -890.446      73.533
  H      242.928    -892.122      73.545
  H      241.931    -890.911      74.316

 3  4  5  6  7  8  9  10  11  12  13  24  28  29  30  31  32 0
 6-311+G(2d,p)
 ****
 33  34 0
 6-311+G(2d,p)
 ****
 1  2  14  15  16  17  18  19  20  21  22  23  25  26  27 0
 3-21G
 ****
 35  36  37  38  39  40  41  42  43  44  45 0
 3-21G
 ****


