%nproc=1
%NoSave
%Mem=1900MB
#P OB98/GEN NMR

erre ene a

0 1
  C      333.198    -117.790     503.426
  O      333.730    -118.262     502.206
  P      332.882    -118.140     500.849
  C      331.881    -120.500     501.081
  O      332.703    -119.629     500.295
  C      331.132    -121.466     500.171
  O      330.306    -120.759     499.215
  C      332.040    -122.346     499.316
  O      332.846    -123.292     499.985
  C      331.039    -122.892     498.303
  O      330.292    -123.986     498.809
  C      330.125    -121.658     498.081
  N      330.388    -120.981     496.809
  C      329.595    -121.381     495.745
  O      328.712    -122.238     495.830
  N      329.860    -120.767     494.536
  C      330.848    -119.877     494.300
  O      331.070    -119.397     493.195
  C      331.670    -119.503     495.473
  C      331.406    -120.061     496.657
  O      333.428    -117.163     499.850
  O      331.404    -117.784     501.367
  H      329.929    -123.715     499.680
  H      331.003    -118.454     501.953
  H      329.301    -121.055     493.751
  H      332.453    -118.772     495.314
  H      331.995    -119.816     497.528
  H      329.063    -121.964     498.097
  H      331.549    -123.238     497.391
  H      332.728    -121.695     498.775
  H      330.453    -122.066     500.797
  H      331.158    -119.899     501.630
  H      332.500    -121.030     501.810
  P      334.433    -123.382     499.796
  C      334.242    -125.462     498.241
  O      334.808    -124.895     499.416
  O      335.270    -122.706     500.834
  O      334.621    -122.638     498.383
  H      335.502    -122.176     498.387
  H      334.567    -126.502     498.164
  H      334.589    -124.918     497.364
  H      333.162    -125.428     498.300
  H      333.905    -117.958     504.212
  H      332.290    -118.312     503.645
  H      332.996    -116.742     503.345

 3  4  5  6  7  8  9  10  11  12  13  23  28  29  30  31  32 0
 6-311+G(2d,p)
 ****
 33  34 0
 6-311+G(2d,p)
 ****
 1  2  14  15  16  17  18  19  20  21  22  24  25  26  27 0
 3-21G
 ****
 35  36  37  38  39  40  41  42  43  44  45 0
 3-21G
 ****


