%nproc=1
%NoSave
%Mem=1900MB
#P OB98/GEN NMR

erre ene a

0 1
  C       37.641     -92.217      -0.744
  O       38.440     -91.202      -0.161
  P       39.990     -91.144      -0.574
  C       40.506     -93.065       1.096
  O       40.621     -92.580      -0.233
  C       41.437     -94.257       1.325
  O       40.890     -95.420       0.642
  C       42.872     -94.054       0.809
  O       43.738     -94.749       1.714
  C       42.823     -94.745      -0.544
  O       44.097     -95.051      -1.082
  C       41.938     -95.943      -0.206
  N       43.032     -98.541      -4.472
  C       43.814     -98.103      -3.459
  N       43.450     -97.424      -2.350
  C       42.122     -97.213      -2.338
  C       41.203     -97.582      -3.306
  C       41.705     -98.279      -4.417
  N       40.905     -98.716      -5.455
  N       39.932     -97.168      -2.961
  C       40.082     -96.557      -1.804
  N       41.381     -96.577      -1.378
  O       40.626     -90.191       0.542
  O       40.257     -90.641      -1.960
  H       44.006     -95.703      -1.805
  H       41.304     -89.603       0.160
  H       44.872     -98.329      -3.551
  H       39.291     -96.074      -1.244
  H       42.481     -96.705       0.366
  H       42.322     -94.084      -1.261
  H       43.171     -93.004       0.762
  H       41.450     -94.485       2.398
  H       39.477     -93.394       1.276
  H       41.383     -99.025      -6.290
  H       39.967     -98.339      -5.503
  H       40.726     -92.253       1.799
  P       45.278     -94.304       1.808
  C       45.865     -96.325       0.332
  O       45.939     -94.920       0.479
  O       45.817     -95.312       2.931
  O       45.524     -92.863       2.094
  H       45.576     -96.234       2.731
  H       46.261     -96.595      -0.651
  H       44.826     -96.661       0.402
  H       46.470     -96.813       1.103
  H       36.638     -92.135      -0.380
  H       38.037     -93.176      -0.484
  H       37.644     -92.106      -1.808

 3  4  5  6  7  8  9  10  11  12  22  25  29  30  31  32 0
 6-311+G(2d,p)
 ****
 33  36  37 0
 6-311+G(2d,p)
 ****
 1  2  13  14  15  16  17  18  19  20  21  23  24  26 0
 3-21G
 ****
 27  28  34  35  38  39  40  41  42  43  44  45  46  47  48 0
 3-21G
 ****


