%nproc=1
%NoSave
%Mem=1900MB
#P OB98/GEN NMR

erre ene a

0 1
  C       25.761    -150.417     267.300
  O       25.707    -151.819     267.486
  H       26.109    -150.214     266.281
  H       26.468    -149.974     268.002
  H       24.772    -149.972     267.425
  P       25.094    -152.401     268.848
  C       24.399    -154.647     267.786
  O       25.193    -154.005     268.772
  C       24.530    -156.172     267.895
  O       25.801    -156.569     267.318
  C       24.482    -156.700     269.337
  O       23.783    -157.943     269.362
  C       25.945    -156.920     269.678
  O       26.121    -157.916     270.685
  C       26.528    -157.317     268.319
  N       31.092    -158.659     270.032
  C       29.854    -159.227     270.257
  N       29.817    -160.303     271.070
  N       28.742    -158.780     269.730
  C       28.931    -157.710     268.911
  C       30.099    -157.056     268.613
  C       31.319    -157.550     269.217
  O       32.444    -157.074     269.071
  N       29.878    -155.998     267.759
  C       28.572    -156.013     267.549
  N       27.950    -157.026     268.237
  O       23.737    -151.876     269.203
  O       26.178    -152.026     269.964
  H       27.074    -157.910     270.924
  H       25.870    -151.285     270.513
  H       31.913    -159.035     270.471
  H       28.035    -155.319     266.918
  H       26.405    -158.390     268.106
  H       26.389    -155.983     270.035
  H       30.636    -160.716     271.491
  H       24.003    -155.992     270.016
  H       28.925    -160.759     271.230
  H       23.743    -156.635     267.287
  H       24.739    -154.319     266.798
  H       23.348    -154.352     267.917
  P       22.253    -157.967     269.850
  C       21.863    -160.090     268.448
  O       21.689    -159.468     269.716
  O       21.376    -156.914     269.259
  O       22.380    -157.782     271.442
  H       21.619    -157.264     271.757
  H       21.453    -161.078     268.476
  H       22.906    -160.144     268.217
  H       21.361    -159.516     267.697

 6  7  8  9  10  11  12  13  14  15  26  29  33  34 0
 6-311+G(2d,p)
 ****
 36  38  39  40  41 0
 6-311+G(2d,p)
 ****
 1  2  3  4  5  16  17  18  19  20  21  22  23  24  25 0
 3-21G
 ****
 27  28  30  31  32  35  37  42  43  44  45  46  47 0
 3-21G
 ****
 48  49 0
 3-21G
 ****


