%nproc=1
%NoSave
%Mem=1900MB
#P OB98/GEN NMR

erre ene a

0 1
  C      834.405    -631.288    -655.705
  O      833.950    -632.558    -656.123
  H      834.767    -631.360    -654.681
  H      833.586    -630.573    -655.739
  H      835.231    -630.938    -656.335
  P      833.652    -632.811    -657.676
  C      835.515    -634.566    -658.050
  O      834.114    -634.314    -657.989
  C      835.828    -636.021    -657.707
  O      835.716    -636.198    -656.261
  C      834.883    -637.046    -658.371
  O      835.626    -638.228    -658.593
  C      833.850    -637.252    -657.274
  O      833.099    -638.431    -657.488
  C      834.741    -637.240    -656.027
  N      833.984    -637.031    -654.787
  C      833.185    -638.065    -654.351
  O      833.046    -639.138    -654.981
  N      832.472    -637.849    -653.204
  C      832.443    -636.687    -652.488
  O      831.777    -636.532    -651.493
  C      833.297    -635.593    -653.022
  C      834.028    -635.815    -654.126
  O      834.188    -631.783    -658.617
  O      832.047    -632.915    -657.756
  H      832.462    -638.569    -656.735
  H      831.738    -632.601    -658.621
  H      831.877    -638.603    -652.891
  H      833.294    -634.650    -652.481
  H      834.635    -635.022    -654.535
  H      835.284    -638.192    -655.933
  H      833.124    -636.419    -657.240
  H      834.438    -636.680    -659.306
  H      836.871    -636.230    -657.974
  H      835.991    -633.890    -657.322
  H      835.891    -634.325    -659.057
  P      835.008    -639.504    -659.369
  C      836.715    -639.542    -661.315
  O      836.188    -640.240    -660.179
  O      833.801    -639.180    -660.213
  O      834.642    -640.557    -658.222
  H      833.884    -641.114    -658.517
  H      837.488    -640.128    -661.767
  H      837.118    -638.602    -661.001
  H      835.933    -639.375    -662.025

 6  7  8  9  10  11  12  13  14  15  16  26  31  32  33  34  35 0
 6-311+G(2d,p)
 ****
 36  37 0
 6-311+G(2d,p)
 ****
 1  2  3  4  5  17  18  19  20  21  22  23  24  25 0
 3-21G
 ****
 27  28  29  30  38  39  40  41  42  43  44  45 0
 3-21G
 ****


