%nproc=1
%NoSave
%Mem=1900MB
#P OB98/GEN NMR

erre ene a

0 1
  C       93.077     -14.554      32.904
  O       92.843     -15.546      31.913
  P       93.448     -17.013      32.150
  C       95.206     -16.642      30.280
  O       94.971     -16.980      31.640
  C       96.681     -16.807      29.917
  O       97.476     -15.932      30.762
  C       97.226     -18.228      30.097
  O       98.221     -18.432      29.088
  C       97.901     -18.167      31.454
  O       98.867     -19.201      31.625
  C       98.472     -16.751      31.412
  N      102.045     -16.264      35.035
  C      102.086     -16.812      33.802
  N      101.092     -16.903      32.894
  C       99.962     -16.354      33.371
  C       99.761     -15.791      34.620
  C      100.873     -15.751      35.478
  N      100.838     -15.184      36.731
  N       98.457     -15.360      34.753
  C       97.882     -15.658      33.607
  N       98.757     -16.237      32.733
  O       92.699     -17.884      31.036
  O       93.238     -17.575      33.514
  H       99.441     -19.215      30.835
  H       92.080     -18.509      31.463
  H      103.045     -17.225      33.502
  H       96.843     -15.479      33.364
  H       99.394     -16.696      30.820
  H       97.151     -18.270      32.246
  H       96.462     -19.010      30.041
  H       96.821     -16.471      28.882
  H       94.922     -15.598      30.124
  H      101.706     -15.071      37.229
  H      100.028     -14.633      36.995
  H       94.585     -17.271      29.635
  P       98.017     -19.683      28.107
  C       99.507     -21.218      29.573
  O       98.238     -21.001      28.988
  O       99.311     -19.632      27.166
  O       96.754     -19.633      27.310
  H       99.110     -20.030      26.299
  H       99.373     -21.730      30.529
  H      100.043     -20.279      29.747
  H      100.104     -21.852      28.910
  H       92.615     -13.636      32.606
  H       94.130     -14.403      33.016
  H       92.662     -14.876      33.836

 3  4  5  6  7  8  9  10  11  12  22  25  29  30  31  32 0
 6-311+G(2d,p)
 ****
 33  36  37 0
 6-311+G(2d,p)
 ****
 1  2  13  14  15  16  17  18  19  20  21  23  24  26 0
 3-21G
 ****
 27  28  34  35  38  39  40  41  42  43  44  45  46  47  48 0
 3-21G
 ****


