%nproc=1
%NoSave
%Mem=1900MB
#P OB98/GEN NMR

erre ene a

0 1
  C     -820.157     -41.254    -671.150
  O     -818.947     -41.860    -670.731
  P     -817.733     -40.885    -670.329
  C     -816.450     -42.723    -669.007
  O     -817.144     -41.477    -668.949
  C     -816.913     -43.650    -667.897
  O     -818.338     -43.874    -667.998
  C     -816.288     -45.033    -667.920
  O     -814.990     -45.039    -667.342
  C     -817.274     -45.827    -667.066
  O     -816.988     -45.603    -665.669
  C     -818.623     -45.175    -667.448
  N     -822.119     -48.790    -668.081
  C     -821.593     -48.261    -666.920
  N     -822.091     -48.742    -665.744
  N     -820.670     -47.343    -666.890
  C     -820.288     -46.923    -668.115
  C     -820.735     -47.380    -669.343
  C     -821.731     -48.426    -669.363
  O     -822.181     -48.985    -670.359
  N     -820.126     -46.704    -670.370
  C     -819.349     -45.816    -669.793
  N     -819.383     -45.939    -668.407
  O     -818.479     -39.545    -669.856
  O     -816.747     -40.618    -671.411
  H     -817.592     -46.168    -665.164
  H     -817.898     -38.779    -669.958
  H     -822.842     -49.495    -668.039
  H     -818.746     -45.072    -670.295
  H     -819.247     -45.019    -666.551
  H     -817.231     -46.903    -667.245
  H     -822.899     -49.347    -665.703
  H     -816.280     -45.455    -668.939
  H     -821.748     -48.334    -664.883
  H     -816.721     -43.153    -666.931
  H     -815.384     -42.536    -668.891
  H     -816.630     -43.179    -669.992
  P     -813.760     -45.490    -668.309
  C     -812.447     -43.657    -667.022
  O     -812.747     -44.253    -668.275
  O     -814.419     -45.409    -669.771
  O     -813.209     -46.833    -667.997
  H     -813.952     -45.996    -670.377
  H     -812.406     -44.415    -666.218
  H     -813.202     -42.912    -666.768
  H     -811.470     -43.177    -667.083
  H     -820.873     -42.013    -671.385
  H     -819.974     -40.655    -672.018
  H     -820.537     -40.636    -670.364

 3  4  5  6  7  8  9  10  11  12  23  26  30  31  33  0
 6-311+G(2d,p)
 ****
 35  36  37  38 0
 6-311+G(2d,p)
 ****
 1  2  13  14  15  16  17  18  19  20  21  22  24  25  27  28  29 0
 3-21G
 ****
 32  34  39  40  41  42  43  44  45  46  47  48  49 0
 3-21G
 ****


