%nproc=1
%NoSave
%Mem=1900MB
#P OB98/GEN NMR

erre ene a

0 1
  C     -287.193     106.376      55.983
  O     -287.756     105.434      56.875
  H     -287.891     106.541      55.157
  H     -286.249     105.997      55.578
  H     -287.020     107.326      56.497
  P     -286.831     104.978      58.108
  C     -284.507     103.790      58.186
  O     -285.605     104.221      57.394
  C     -283.300     103.524      57.291
  O     -282.817     104.757      56.712
  C     -282.106     102.924      58.022
  O     -282.243     101.531      58.257
  C     -281.000     103.220      57.026
  O     -281.082     102.298      55.922
  C     -281.373     104.653      56.583
  N     -280.711     105.692      57.375
  C     -279.313     105.639      57.435
  O     -278.693     104.753      56.852
  N     -278.647     106.581      58.187
  C     -279.317     107.500      58.814
  N     -278.608     108.398      59.553
  C     -280.788     107.600      58.762
  C     -281.412     106.676      58.037
  O     -287.649     103.770      58.766
  O     -286.438     106.053      59.065
  H     -280.620     102.715      55.172
  H     -287.100     103.336      59.465
  H     -281.301     108.377      59.311
  H     -282.493     106.686      57.954
  H     -281.128     104.812      55.524
  H     -279.998     103.123      57.451
  H     -281.889     103.458      58.955
  H     -283.627     102.881      56.463
  H     -277.609     108.265      59.619
  H     -284.799     102.873      58.711
  H     -279.049     109.028      60.213
  H     -284.252     104.558      58.923
  P     -281.193     100.836      59.254
  C     -278.706     100.102      59.123
  O     -279.795     100.740      58.474
  O     -281.694      99.318      59.305
  O     -281.118     101.450      60.620
  H     -281.607      98.946      60.204
  H     -277.850     100.117      58.481
  H     -278.967      99.089      59.345
  H     -278.479     100.620      60.032

 6  7  8  9  10  11  12  13  14  15  16  26  30  31  32  33  35 0
 6-311+G(2d,p)
 ****
 37  38 0
 6-311+G(2d,p)
 ****
 1  2  3  4  5  17  18  19  20  21  22  23  24  25 0
 3-21G
 ****
 27  28  29  34  36  39  40  41  42  43  44  45  46 0
 3-21G
 ****


