%nproc=1
%NoSave
%Mem=1900MB
#P OB98/GEN NMR

erre ene a

0 1
  C      643.773     128.329     370.384
  O      644.003     128.837     371.678
  P      644.284     127.834     372.907
  C      642.206     128.826     374.068
  O      642.872     127.632     373.645
  C      640.751     128.802     373.605
  O      640.671     128.504     372.183
  C      639.900     127.736     374.265
  O      639.655     127.858     375.655
  C      638.681     127.704     373.348
  O      637.770     128.767     373.661
  C      639.338     127.938     371.967
  N      639.398     126.711     371.165
  C      638.183     126.186     370.757
  O      637.098     126.704     371.027
  N      638.247     125.019     370.038
  C      639.372     124.310     369.749
  O      639.359     123.248     369.149
  C      640.634     124.907     370.219
  C      640.591     126.057     370.902
  O      645.412     128.229     373.800
  O      644.492     126.417     372.185
  H      637.032     128.691     373.026
  H      643.726     126.114     371.658
  H      637.370     124.615     369.755
  H      641.556     124.372     369.996
  H      641.515     126.522     371.269
  H      638.766     128.682     371.401
  H      638.132     126.762     373.442
  H      640.414     126.766     374.146
  H      640.331     129.808     373.748
  H      642.718     129.690     373.619
  H      642.270     128.926     375.156
  P      640.269     126.863     376.751
  C      638.086     125.449     376.738
  O      639.491     125.467     376.641
  O      640.492     127.420     378.122
  O      641.693     126.495     376.104
  H      642.337     126.336     376.820
  H      637.739     124.413     376.675
  H      637.644     126.017     375.908
  H      637.773     125.893     377.688
  H      643.607     129.140     369.707
  H      642.912     127.694     370.398
  H      644.625     127.766     370.065

 3  4  5  6  7  8  9  10  11  12  13  23  28  29  30  31  32 0
 6-311+G(2d,p)
 ****
 33  34 0
 6-311+G(2d,p)
 ****
 1  2  14  15  16  17  18  19  20  21  22  24  25  26  27 0
 3-21G
 ****
 35  36  37  38  39  40  41  42  43  44  45 0
 3-21G
 ****


