%nproc=1
%NoSave
%Mem=1900MB
#P OB98/GEN NMR

erre ene a

0 1
  C     1221.065    -459.844    -581.511
  O     1220.943    -459.696    -580.099
  P     1219.632    -460.319    -579.409
  C     1220.892    -461.729    -577.602
  O     1220.041    -460.604    -577.878
  C     1221.585    -461.546    -576.260
  O     1222.754    -460.730    -576.413
  C     1220.733    -460.832    -575.226
  O     1219.774    -461.716    -574.673
  C     1221.804    -460.383    -574.218
  O     1222.095    -461.428    -573.252
  C     1223.007    -460.109    -575.128
  N     1223.302    -458.677    -575.268
  C     1224.041    -458.105    -574.222
  O     1224.372    -458.789    -573.246
  N     1224.330    -456.763    -574.300
  C     1223.935    -456.068    -575.296
  N     1224.248    -454.731    -575.340
  C     1223.145    -456.648    -576.431
  C     1222.848    -457.942    -576.341
  O     1219.537    -461.786    -580.059
  O     1218.382    -459.523    -579.618
  H     1222.516    -460.968    -572.491
  H     1218.612    -462.103    -580.068
  H     1222.823    -456.016    -577.244
  H     1222.303    -458.453    -577.095
  H     1223.913    -460.592    -574.724
  H     1221.484    -459.494    -573.654
  H     1220.239    -459.973    -575.658
  H     1221.901    -462.538    -575.883
  H     1224.786    -454.385    -574.561
  H     1221.653    -461.785    -578.398
  H     1223.990    -454.120    -576.095
  H     1220.283    -462.651    -577.622
  P     1218.390    -461.117    -574.154
  C     1217.019    -463.126    -574.964
  O     1217.471    -462.362    -573.837
  O     1217.744    -460.542    -575.530
  O     1218.490    -460.044    -573.090
  H     1216.928    -460.030    -575.328
  H     1216.513    -464.016    -574.592
  H     1217.856    -463.399    -575.585
  H     1216.269    -462.532    -575.535
  H     1221.976    -459.388    -581.840
  H     1220.235    -459.370    -581.992
  H     1221.076    -460.884    -581.761

 3  4  5  6  7  8  9  10  11  12  13  21  23  27  28  29  30  32 0
 6-311+G(2d,p)
 ****
 34  35 0
 6-311+G(2d,p)
 ****
 1  2  14  15  16  17  18  19  20  22  24  25  26 0
 3-21G
 ****
 31  33  36  37  38  39  40  41  42  43  44  45  46 0
 3-21G
 ****


