%nproc=1
%NoSave
%Mem=1900MB
#P OB98/GEN NMR

erre ene a

0 1
  C     -121.517    -899.416    -891.690
  O     -121.078    -898.046    -891.740
  P     -119.662    -897.726    -892.440
  C     -120.276    -896.366    -894.530
  O     -119.860    -897.626    -894.010
  C     -119.936    -896.256    -896.060
  O     -118.504    -896.116    -896.220
  C     -120.401    -897.476    -896.850
  O     -121.149    -897.136    -898.010
  C     -119.110    -898.246    -897.120
  O     -119.185    -899.086    -898.260
  C     -118.047    -897.126    -897.170
  N     -116.705    -897.646    -896.860
  C     -116.035    -898.256    -897.890
  O     -116.527    -898.476    -899.000
  N     -114.794    -898.746    -897.580
  C     -114.166    -898.686    -896.370
  O     -113.059    -899.146    -896.170
  C     -114.943    -898.046    -895.290
  C     -116.169    -897.566    -895.590
  O     -118.519    -898.556    -891.980
  O     -119.427    -896.176    -892.030
  H     -119.940    -899.716    -898.130
  H     -118.468    -896.076    -891.820
  H     -114.268    -899.176    -898.340
  H     -114.531    -898.026    -894.300
  H     -116.782    -897.116    -894.810
  H     -118.008    -896.676    -898.160
  H     -118.923    -898.886    -896.250
  H     -121.083    -898.116    -896.270
  H     -120.404    -895.336    -896.420
  H     -119.778    -895.566    -894.000
  H     -121.359    -896.236    -894.370
  P     -122.726    -897.436    -898.200
  C     -123.282    -894.926    -898.540
  O     -123.535    -896.096    -897.810
  O     -123.228    -898.686    -897.540
  O     -122.901    -897.556    -899.790
  H     -123.518    -898.246    -900.000
  H     -123.589    -894.046    -897.930
  H     -123.824    -894.896    -899.470
  H     -122.183    -894.796    -898.760
  H     -122.466    -899.469    -891.199
  H     -120.803    -900.000    -891.148
  H     -121.608    -899.798    -892.685

 3  4  5  6  7  8  9  10  11  12  13  23  28  29  30  31  32 0
 6-311+G(2d,p)
 ****
 33  34 0
 6-311+G(2d,p)
 ****
 1  2  14  15  16  17  18  19  20  21  22  24  25  26  27 0
 3-21G
 ****
 35  36  37  38  39  40  41  42  43  44  45 0
 3-21G
 ****


