%nproc=1
%NoSave
%Mem=1900MB
#P OB98/GEN NMR

erre ene a

0 1
  C      363.830     -68.719     113.995
  O      362.621     -68.737     113.229
  P      361.241     -68.732     114.056
  C      359.938     -70.762     113.070
  O      360.726     -70.249     114.138
  C      359.280     -72.082     113.467
  O      360.251     -73.140     113.556
  C      358.592     -72.055     114.826
  O      357.316     -71.440     114.757
  C      358.465     -73.544     115.120
  O      357.300     -74.073     114.454
  C      359.753     -74.116     114.496
  N      361.211     -77.135     118.300
  C      360.057     -77.166     117.535
  N      359.187     -78.167     117.801
  N      359.789     -76.306     116.588
  C      360.766     -75.382     116.413
  C      361.946     -75.242     117.112
  C      362.216     -76.188     118.172
  O      363.206     -76.178     118.905
  N      362.688     -74.192     116.638
  C      361.969     -73.708     115.637
  N      360.788     -74.391     115.475
  O      360.212     -68.049     113.037
  O      361.315     -67.997     115.352
  H      357.463     -73.998     113.493
  H      359.492     -67.614     113.530
  H      361.362     -77.819     119.022
  H      362.263     -72.877     115.011
  H      359.552     -75.040     113.935
  H      358.339     -73.754     116.187
  H      359.368     -78.907     118.463
  H      359.238     -71.581     115.581
  H      358.356     -78.226     117.221
  H      358.551     -72.341     112.684
  H      360.564     -70.916     112.190
  H      359.183     -70.009     112.798
  P      357.138     -70.035     115.512
  C      355.553     -71.063     117.284
  O      356.768     -70.393     117.025
  O      355.771     -69.472     114.898
  O      358.274     -69.079     115.313
  H      355.768     -68.495     114.902
  H      355.373     -71.861     116.562
  H      354.727     -70.347     117.249
  H      355.594     -71.496     118.287
  H      364.671     -68.724     113.334
  H      363.866     -69.583     114.625
  H      363.857     -67.836     114.599

 3  4  5  6  7  8  9  10  11  12  23  26  30  31  33  0
 6-311+G(2d,p)
 ****
 35  36  37  38 0
 6-311+G(2d,p)
 ****
 1  2  13  14  15  16  17  18  19  20  21  22  24  25  27  28  29 0
 3-21G
 ****
 32  34  39  40  41  42  43  44  45  46  47  48  49 0
 3-21G
 ****


