%nproc=1
%NoSave
%Mem=1900MB
#P OB98/GEN NMR

erre ene a

0 1
  C      363.826      81.238     173.305
  O      364.941      81.733     172.586
  P      365.795      82.963     173.143
  C      366.781      81.518     175.100
  O      367.002      82.387     174.012
  C      367.990      80.584     175.246
  O      367.902      79.504     174.296
  C      369.302      81.325     174.997
  O      369.864      81.772     176.221
  C      370.143      80.279     174.291
  O      370.733      79.377     175.247
  C      369.079      79.541     173.444
  N      368.689      80.131     172.150
  C      369.611      80.175     171.109
  O      370.747      79.715     171.183
  N      369.183      80.796     169.962
  C      367.941      81.322     169.756
  O      367.653      82.076     168.836
  C      366.942      81.003     170.780
  C      367.359      80.453     171.919
  O      364.826      83.611     174.240
  O      366.228      83.960     172.119
  H      370.830      79.868     176.084
  H      364.357      84.382     173.871
  H      369.893      80.957     169.254
  H      365.911      81.275     170.596
  H      366.642      80.244     172.711
  H      369.382      78.505     173.251
  H      370.974      80.736     173.754
  H      369.140      82.165     174.310
  H      367.981      80.151     176.255
  H      365.868      80.937     174.936
  H      366.635      82.095     176.018
  P      370.981      82.918     176.205
  C      369.239      84.281     177.500
  O      370.597      83.900     177.414
  O      371.206      83.583     174.886
  O      372.293      82.155     176.718
  H      372.845      81.890     175.953
  H      369.077      84.789     178.453
  H      368.589      83.400     177.451
  H      368.997      84.967     176.685
  H      363.392      80.419     172.770
  H      363.100      82.016     173.417
  H      364.144      80.905     174.271

 3  4  5  6  7  8  9  10  11  12  13  23  28  29  30  31  32 0
 6-311+G(2d,p)
 ****
 33  34 0
 6-311+G(2d,p)
 ****
 1  2  14  15  16  17  18  19  20  21  22  24  25  26  27 0
 3-21G
 ****
 35  36  37  38  39  40  41  42  43  44  45 0
 3-21G
 ****


