%nproc=1
%NoSave
%Mem=1900MB
#P OB98/GEN NMR

erre ene a

0 1
  C       99.884    -143.568     -98.844
  O       99.630    -143.672    -100.231
  H      100.057    -144.568     -98.442
  H       99.021    -143.132     -98.334
  H      100.774    -142.958     -98.655
  P       99.542    -142.330    -101.107
  C      101.595    -143.144    -102.444
  O      101.006    -142.076    -101.711
  C      102.146    -142.624    -103.771
  O      103.104    -141.568    -103.537
  C      102.883    -143.677    -104.594
  O      101.972    -144.561    -105.223
  C      103.676    -142.790    -105.546
  O      102.852    -142.334    -106.627
  C      104.070    -141.614    -104.615
  N      105.430    -141.722    -104.090
  C      106.463    -141.447    -104.984
  O      106.269    -141.164    -106.169
  N      107.735    -141.527    -104.474
  C      108.065    -141.925    -103.209
  O      109.226    -142.031    -102.816
  C      106.937    -142.240    -102.319
  C      105.691    -142.128    -102.794
  O       98.930    -141.149    -100.428
  O       98.698    -142.777    -102.395
  H      102.610    -143.123    -107.149
  H       97.770    -142.484    -102.296
  H      108.496    -141.341    -105.108
  H      107.164    -142.565    -101.308
  H      104.849    -142.354    -102.151
  H      103.983    -140.661    -105.153
  H      104.529    -143.305    -105.992
  H      103.589    -144.231    -103.957
  H      101.309    -142.200    -104.347
  H      100.825    -143.903    -102.639
  H      102.394    -143.589    -101.841
  P      102.482    -145.920    -105.897
  C      102.651    -147.309    -103.746
  O      103.377    -146.695    -104.804
  O      103.130    -145.762    -107.235
  O      101.162    -146.823    -105.994
  H      100.854    -146.862    -106.921
  H      103.333    -147.793    -103.079
  H      101.974    -148.032    -104.151
  H      102.100    -146.563    -103.212

 6  7  8  9  10  11  12  13  14  15  16  26  31  32  33  34  35 0
 6-311+G(2d,p)
 ****
 36  37 0
 6-311+G(2d,p)
 ****
 1  2  3  4  5  17  18  19  20  21  22  23  24  25 0
 3-21G
 ****
 27  28  29  30  38  39  40  41  42  43  44  45 0
 3-21G
 ****


