%nproc=1
%NoSave
%Mem=1900MB
#P OB98/GEN NMR

erre ene a

0 1
  C       76.138     282.179    -235.754
  O       75.173     283.052    -235.208
  H       75.835     281.913    -236.769
  H       76.209     281.265    -235.159
  H       77.115     282.670    -235.801
  P       75.348     283.545    -233.694
  C       72.780     283.764    -233.555
  O       74.038     284.396    -233.331
  C       71.693     284.820    -233.787
  O       71.616     285.642    -232.598
  C       72.005     285.731    -234.985
  O       70.939     285.801    -235.927
  C       72.453     287.031    -234.326
  O       72.255     288.189    -235.113
  C       71.696     287.025    -232.994
  N       72.329     287.826    -231.949
  C       72.383     289.201    -232.146
  O       71.921     289.798    -233.116
  N       73.001     289.916    -231.151
  C       73.560     289.403    -230.020
  O       74.096     290.095    -229.162
  C       73.490     287.939    -229.880
  C       72.888     287.230    -230.836
  O       76.638     284.223    -233.380
  O       75.161     282.210    -232.829
  H       72.840     288.120    -235.894
  H       76.034     281.886    -232.537
  H       73.038     290.915    -231.279
  H       73.932     287.497    -228.998
  H       72.817     286.148    -230.764
  H       70.680     287.398    -233.130
  H       73.529     286.960    -234.127
  H       72.837     285.328    -235.575
  H       70.729     284.314    -233.904
  H       72.543     283.164    -232.672
  H       72.850     283.105    -234.427
  P       70.768     284.828    -237.180
  C       69.423     286.307    -238.878
  O       69.422     285.233    -237.948
  O       70.976     283.378    -236.905
  O       71.938     285.307    -238.182
  H       72.233     284.510    -238.667
  H       68.441     286.427    -239.286
  H       70.114     286.095    -239.667
  H       69.715     287.209    -238.381

 6  7  8  9  10  11  12  13  14  15  16  26  31  32  33  34  35 0
 6-311+G(2d,p)
 ****
 36  37 0
 6-311+G(2d,p)
 ****
 1  2  3  4  5  17  18  19  20  21  22  23  24  25 0
 3-21G
 ****
 27  28  29  30  38  39  40  41  42  43  44  45 0
 3-21G
 ****


