%nproc=1
%NoSave
%Mem=1900MB
#P OB98/GEN NMR

erre ene a

0 1
  C     2651.602    1085.867    -970.154
  O     2652.925    1086.386    -970.248
  P     2653.092    1087.835    -970.945
  C     2654.732    1089.090    -969.338
  O     2653.381    1088.850    -969.746
  C     2655.031    1088.272    -968.088
  O     2654.872    1086.845    -968.383
  C     2656.440    1088.427    -967.593
  O     2656.653    1089.651    -966.922
  C     2656.597    1087.179    -966.690
  O     2656.005    1087.437    -965.418
  C     2655.775    1086.122    -967.469
  N     2656.602    1085.195    -968.185
  C     2657.293    1084.257    -967.431
  O     2657.241    1084.218    -966.176
  N     2658.091    1083.379    -968.085
  C     2658.297    1083.353    -969.461
  O     2658.981    1082.495    -969.984
  C     2657.579    1084.375    -970.197
  C     2656.822    1085.239    -969.586
  O     2651.562    1088.156    -971.380
  O     2654.076    1087.832    -972.065
  H     2650.922    1087.821    -970.740
  H     2655.093    1087.769    -965.614
  H     2658.589    1082.683    -967.538
  H     2657.739    1084.377    -971.294
  H     2656.292    1086.002    -970.119
  H     2655.146    1085.580    -966.774
  H     2657.647    1086.923    -966.516
  H     2657.157    1088.334    -968.417
  H     2654.327    1088.503    -967.289
  H     2654.852    1090.148    -969.097
  H     2655.403    1088.856    -970.166
  P     2657.996    1090.472    -967.322
  C     2657.046    1092.909    -967.406
  O     2657.548    1091.791    -968.098
  O     2658.625    1089.533    -968.439
  O     2658.938    1090.692    -966.134
  H     2657.945    1089.221    -969.086
  H     2657.141    1093.794    -968.036
  H     2657.634    1093.085    -966.486
  H     2655.992    1092.731    -967.158
  H     2651.628    1084.910    -969.677
  H     2651.188    1085.765    -971.135
  H     2650.996    1086.536    -969.579

 3  4  5  6  7  8  9  10  11  12  13  24  28  29  30  31  32 0
 6-311+G(2d,p)
 ****
 33  34 0
 6-311+G(2d,p)
 ****
 1  2  14  15  16  17  18  19  20  21  22  23  25  26  27 0
 3-21G
 ****
 35  36  37  38  39  40  41  42  43  44  45 0
 3-21G
 ****


