%nproc=1
%NoSave
%Mem=1900MB
#P OB98/GEN NMR

erre ene a

0 1
  C      710.935     120.553     271.508
  O      710.093     121.615     271.980
  P      708.491     121.568     271.936
  C      707.907     120.250     274.102
  O      708.011     120.221     272.673
  C      706.458     120.015     274.540
  O      706.030     118.682     274.154
  C      706.232     120.067     276.050
  O      706.281     121.383     276.556
  C      704.856     119.394     276.157
  O      703.801     120.340     275.931
  C      704.902     118.359     275.015
  N      704.985     116.988     275.488
  C      703.785     116.367     275.842
  O      702.726     117.008     275.825
  N      703.815     115.056     276.232
  C      704.948     114.433     276.340
  N      704.912     113.125     276.710
  C      706.251     115.090     276.114
  C      706.198     116.352     275.697
  O      707.909     121.738     270.572
  O      707.991     122.728     272.923
  H      707.109     123.042     272.646
  H      702.988     119.814     275.777
  H      707.182     114.553     276.265
  H      707.104     116.902     275.483
  H      704.013     118.467     274.377
  H      704.695     118.958     277.146
  H      706.981     119.438     276.552
  H      705.820     120.750     274.030
  H      704.000     112.701     276.851
  H      708.231     121.237     274.443
  H      705.731     112.550     276.819
  H      708.584     119.496     274.521
  P      707.144     121.621     277.895
  C      709.370     122.413     276.810
  O      708.687     121.393     277.514
  O      706.785     120.341     278.809
  O      706.851     122.898     278.607
  H      706.711     120.623     279.736
  H      710.434     122.355     277.055
  H      709.000     123.412     277.073
  H      709.245     122.251     275.740
  H      711.961     120.823     271.646
  H      710.747     120.384     270.468
  H      710.725     119.660     272.058

 3  4  5  6  7  8  9  10  11  12  13  24  27  28  29  30  32 0
 6-311+G(2d,p)
 ****
 34  35 0
 6-311+G(2d,p)
 ****
 1  2  14  15  16  17  18  19  20  21  22  23  25  26 0
 3-21G
 ****
 31  33  36  37  38  39  40  41  42  43  44  45  46 0
 3-21G
 ****


