%nproc=1
%NoSave
%Mem=1900MB
#P OB98/GEN NMR

erre ene a

0 1
  C      -54.740    -306.244    -464.367
  O      -54.137    -307.370    -464.975
  H      -55.539    -305.881    -465.019
  H      -54.009    -305.443    -464.231
  H      -55.175    -306.518    -463.401
  P      -52.926    -308.085    -464.209
  C      -53.800    -310.440    -464.802
  O      -52.734    -309.509    -464.922
  C      -53.492    -311.693    -465.614
  O      -52.173    -312.183    -465.305
  C      -54.455    -312.851    -465.357
  O      -55.652    -312.674    -466.097
  C      -53.616    -314.020    -465.845
  O      -53.620    -314.055    -467.284
  C      -52.220    -313.637    -465.326
  N      -50.022    -317.336    -462.649
  C      -50.193    -317.211    -464.015
  N      -49.751    -318.239    -464.769
  N      -50.762    -316.179    -464.584
  C      -51.215    -315.265    -463.698
  C      -51.121    -315.285    -462.326
  C      -50.438    -316.405    -461.710
  O      -50.252    -316.547    -460.506
  N      -51.758    -314.212    -461.760
  C      -52.203    -313.521    -462.792
  N      -51.913    -314.126    -463.991
  O      -53.041    -308.169    -462.717
  O      -51.634    -307.264    -464.668
  H      -52.914    -314.670    -467.549
  H      -51.434    -306.543    -464.044
  H      -49.592    -318.164    -462.271
  H      -52.736    -312.581    -462.726
  H      -51.420    -313.983    -465.989
  H      -53.981    -314.987    -465.495
  H      -49.575    -319.154    -464.374
  H      -54.653    -312.986    -464.289
  H      -49.912    -318.188    -465.767
  H      -53.491    -311.414    -466.675
  H      -54.708    -309.957    -465.175
  H      -53.952    -310.712    -463.752
  P      -57.085    -312.971    -465.439
  C      -58.317    -311.495    -467.166
  O      -58.136    -312.802    -466.637
  O      -57.396    -312.167    -464.221
  O      -57.094    -314.546    -465.191
  H      -56.721    -314.813    -464.314
  H      -59.041    -311.526    -467.954
  H      -57.386    -311.134    -467.551
  H      -58.660    -310.841    -466.392

 6  7  8  9  10  11  12  13  14  15  26  29  33  34 0
 6-311+G(2d,p)
 ****
 36  38  39  40  41 0
 6-311+G(2d,p)
 ****
 1  2  3  4  5  16  17  18  19  20  21  22  23  24  25 0
 3-21G
 ****
 27  28  30  31  32  35  37  42  43  44  45  46  47 0
 3-21G
 ****
 48  49 0
 3-21G
 ****


