%nproc=1
%NoSave
%Mem=1900MB
#P OB98/GEN NMR

erre ene a

0 1
  C       89.300     105.498     -58.921
  O       90.561     105.766     -58.339
  H       89.444     105.294     -59.987
  H       88.637     106.362     -58.820
  H       88.843     104.621     -58.455
  P       90.615     106.176     -56.792
  C       89.845     104.981     -54.628
  O       89.627     105.174     -56.023
  C       88.514     104.829     -53.893
  O       87.730     106.030     -54.022
  C       87.634     103.701     -54.424
  O       88.126     102.445     -54.001
  C       86.289     104.104     -53.847
  O       86.195     103.750     -52.458
  C       86.334     105.643     -54.018
  N       85.662     106.117     -55.223
  C       84.339     106.544     -55.061
  O       83.801     106.494     -53.954
  N       83.658     106.999     -56.165
  C       84.253     107.065     -57.316
  N       83.526     107.530     -58.365
  C       85.657     106.658     -57.519
  C       86.291     106.189     -56.446
  O       90.389     107.625     -56.484
  O       92.064     105.691     -56.314
  H       85.282     103.968     -52.184
  H       92.707     106.421     -56.378
  H       86.117     106.739     -58.495
  H       87.327     105.869     -56.512
  H       85.872     106.137     -53.153
  H       85.457     103.617     -54.357
  H       87.572     103.752     -55.515
  H       88.731     104.687     -52.826
  H       82.571     107.816     -58.171
  H       90.378     105.865     -54.260
  H       83.928     107.774     -59.260
  H       90.474     104.101     -54.454
  P       87.731     101.089     -54.761
  C       88.114     100.238     -57.158
  O       87.979     101.378     -56.324
  O       86.384     100.544     -54.429
  O       88.929     100.091     -54.399
  H       88.823      99.743     -53.479
  H       88.274     100.552     -58.168
  H       87.222      99.649     -57.105
  H       88.948      99.653     -56.830

 6  7  8  9  10  11  12  13  14  15  16  26  30  31  32  33  35 0
 6-311+G(2d,p)
 ****
 37  38 0
 6-311+G(2d,p)
 ****
 1  2  3  4  5  17  18  19  20  21  22  23  24  25 0
 3-21G
 ****
 27  28  29  34  36  39  40  41  42  43  44  45  46 0
 3-21G
 ****


