%nproc=1
%NoSave
%Mem=1900MB
#P OB98/GEN NMR

erre ene a

0 1
  C      -11.082     -46.188    -209.746
  O      -11.743     -45.115    -210.385
  H      -10.003     -46.026    -209.779
  H      -11.400     -46.225    -208.700
  H      -11.333     -47.140    -210.223
  P      -11.664     -45.053    -211.986
  C      -13.338     -46.830    -212.865
  O      -13.119     -45.469    -212.527
  C      -14.727     -47.013    -213.473
  O      -14.883     -48.407    -213.862
  C      -15.884     -46.657    -212.526
  O      -16.911     -46.012    -213.286
  C      -16.387     -48.013    -212.068
  O      -17.752     -47.986    -211.664
  C      -16.130     -48.862    -213.308
  N      -18.979     -53.006    -212.560
  C      -19.246     -51.823    -213.149
  N      -18.409     -50.786    -213.356
  C      -17.166     -51.090    -212.945
  C      -16.739     -52.256    -212.334
  C      -17.718     -53.244    -212.126
  N      -17.472     -54.426    -211.467
  N      -15.400     -52.167    -212.009
  C      -15.034     -50.959    -212.392
  N      -16.068     -50.271    -212.961
  O      -10.756     -46.327    -212.333
  O      -11.102     -43.795    -212.554
  H      -18.315     -47.927    -212.460
  H       -9.815     -46.074    -212.311
  H      -20.269     -51.683    -213.489
  H      -14.053     -50.527    -212.254
  H      -16.911     -48.743    -214.070
  H      -15.783     -48.361    -211.220
  H      -15.587     -46.015    -211.688
  H      -14.784     -46.417    -214.392
  H      -13.265     -47.441    -211.959
  H      -18.258     -55.025    -211.270
  H      -16.567     -54.569    -211.041
  H      -12.567     -47.156    -213.571
  P      -17.000     -44.414    -213.199
  C      -15.331     -43.653    -215.046
  O      -16.688     -43.806    -214.648
  O      -15.705     -44.019    -212.346
  O      -18.254     -43.913    -212.559
  H      -15.885     -43.230    -211.804
  H      -15.293     -43.238    -216.031
  H      -14.848     -44.608    -215.043
  H      -14.831     -42.998    -214.363

 6  7  8  9  10  11  12  13  14  15  25  28  32  33  34  35 0
 6-311+G(2d,p)
 ****
 36  39  40 0
 6-311+G(2d,p)
 ****
 1  2  3  4  5  16  17  18  19  20  21  22  23  24 0
 3-21G
 ****
 26  27  29  30  31  37  38  41  42  43  44  45  46  47 0
 3-21G
 ****
 48 0
 3-21G
 ****


