%nproc=1
%NoSave
%Mem=1900MB
#P OB98/GEN NMR

erre ene a

0 1
  C       77.081    -212.738     -16.727
  O       77.557    -213.003     -18.032
  H       76.388    -213.535     -16.443
  H       76.541    -211.785     -16.703
  H       77.905    -212.721     -16.010
  P       78.594    -211.970     -18.689
  C       78.274    -209.659     -19.820
  O       77.711    -210.656     -18.976
  C       77.194    -209.056     -20.716
  O       76.221    -208.318     -19.946
  C       77.705    -208.055     -21.747
  O       78.396    -208.652     -22.828
  C       76.385    -207.429     -22.173
  O       75.683    -208.334     -23.045
  C       75.669    -207.291     -20.815
  N       75.850    -205.968     -20.214
  C       75.138    -204.912     -20.801
  O       74.412    -205.108     -21.773
  N       75.291    -203.641     -20.290
  C       76.105    -203.442     -19.298
  N       76.225    -202.166     -18.837
  C       76.888    -204.521     -18.663
  C       76.712    -205.743     -19.164
  O       79.384    -212.483     -19.854
  O       79.507    -211.483     -17.467
  H       74.808    -207.944     -23.216
  H       80.174    -210.847     -17.824
  H       77.572    -204.294     -17.855
  H       77.258    -206.585     -18.754
  H       74.594    -207.490     -20.913
  H       76.513    -206.492     -22.714
  H       78.317    -207.279     -21.266
  H       76.663    -209.894     -21.192
  H       75.678    -201.448     -19.292
  H       79.067    -210.120     -20.413
  H       76.888    -201.904     -18.117
  H       78.704    -208.858     -19.209
  P       79.658    -207.842     -23.419
  C       79.928    -205.818     -25.045
  O       79.052    -206.718     -24.393
  O       80.328    -208.898     -24.416
  O       80.615    -207.321     -22.394
  H       81.089    -209.340     -23.986
  H       79.360    -205.142     -25.650
  H       80.607    -206.366     -25.664
  H       80.480    -205.265     -24.314

 6  7  8  9  10  11  12  13  14  15  16  26  30  31  32  33  35 0
 6-311+G(2d,p)
 ****
 37  38 0
 6-311+G(2d,p)
 ****
 1  2  3  4  5  17  18  19  20  21  22  23  24  25 0
 3-21G
 ****
 27  28  29  34  36  39  40  41  42  43  44  45  46 0
 3-21G
 ****


