%nproc=1
%NoSave
%Mem=1900MB
#P OB98/GEN NMR

erre ene a

0 1
  C     -132.572      -5.387     295.899
  O     -133.507      -5.617     296.935
  H     -132.508      -4.312     295.716
  H     -132.897      -5.882     294.980
  H     -131.584      -5.756     296.192
  P     -133.763      -7.150     297.337
  C     -136.288      -7.003     296.756
  O     -135.040      -7.627     296.487
  C     -137.320      -7.398     295.703
  O     -136.900      -6.964     294.389
  C     -137.577      -8.898     295.605
  O     -138.499      -9.328     296.591
  C     -138.133      -9.011     294.189
  O     -139.529      -8.659     294.140
  C     -137.282      -7.983     293.428
  N     -135.622     -11.376     290.077
  C     -136.914     -11.022     290.425
  N     -137.907     -11.713     289.821
  N     -137.200     -10.085     291.287
  C     -136.103      -9.503     291.830
  C     -134.777      -9.754     291.555
  C     -134.473     -10.771     290.575
  O     -133.356     -11.090     290.175
  N     -133.956      -8.945     292.295
  C     -134.779      -8.234     293.044
  N     -136.093      -8.548     292.807
  O     -134.337      -7.053     298.832
  O     -132.571      -8.040     297.264
  H     -140.012      -9.178     294.807
  H     -134.074      -7.853     299.325
  H     -135.465     -12.095     289.392
  H     -134.477      -7.485     293.760
  H     -137.850      -7.488     292.634
  H     -138.053     -10.031     293.808
  H     -137.751     -12.633     289.433
  H     -136.636      -9.458     295.674
  H     -138.852     -11.474     290.090
  H     -138.253      -6.866     295.940
  H     -136.155      -5.917     296.740
  H     -136.635      -7.305     297.751
  P     -138.558     -10.895     296.928
  C     -140.953     -11.071     295.929
  O     -139.613     -11.541     295.906
  O     -139.329     -10.947     298.330
  O     -137.227     -11.566     296.995
  H     -139.185     -11.807     298.759
  H     -141.528     -11.596     295.195
  H     -140.967     -10.024     295.711
  H     -141.373     -11.239     296.898

 6  7  8  9  10  11  12  13  14  15  26  29  33  34 0
 6-311+G(2d,p)
 ****
 36  38  39  40  41 0
 6-311+G(2d,p)
 ****
 1  2  3  4  5  16  17  18  19  20  21  22  23  24  25 0
 3-21G
 ****
 27  28  30  31  32  35  37  42  43  44  45  46  47 0
 3-21G
 ****
 48  49 0
 3-21G
 ****


