%nproc=1
%NoSave
%Mem=1900MB
#P OB98/GEN NMR

erre ene a

0 1
  C     -162.522     124.589     140.981
  O     -161.663     124.216     139.923
  H     -162.916     125.588     140.779
  H     -161.965     124.615     141.921
  H     -163.360     123.890     141.063
  P     -161.154     122.697     139.890
  C     -162.900     121.296     138.567
  O     -161.705     122.061     138.521
  C     -162.960     120.350     137.368
  O     -163.891     119.272     137.676
  C     -163.441     121.014     136.072
  O     -162.731     120.430     134.975
  C     -164.899     120.602     135.996
  O     -165.439     120.634     134.682
  C     -164.832     119.191     136.587
  N     -166.132     118.714     137.052
  C     -167.078     118.392     136.083
  O     -166.871     118.398     134.872
  N     -168.317     118.047     136.561
  C     -168.697     118.018     137.870
  O     -169.829     117.721     138.232
  C     -167.658     118.377     138.844
  C     -166.444     118.705     138.397
  O     -162.050     121.993     141.012
  O     -159.693     122.504     140.120
  H     -161.611     122.044     141.881
  H     -166.415     120.612     134.765
  H     -169.014     117.812     135.872
  H     -167.926     118.376     139.891
  H     -165.660     118.996     139.088
  H     -164.422     118.488     135.853
  H     -165.506     121.261     136.627
  H     -163.319     122.102     136.054
  H     -161.973     119.891     137.231
  H     -163.763     121.968     138.533
  H     -162.929     120.730     139.503
  P     -161.558     121.301     134.309
  C     -159.863     121.959     136.195
  O     -160.256     121.023     135.202
  O     -162.008     122.781     134.709
  O     -161.409     121.056     132.846
  H     -162.429     122.827     135.584
  H     -158.979     121.608     136.686
  H     -160.649     122.070     136.912
  H     -159.664     122.904     135.735

 6  7  8  9  10  11  12  13  14  15  16  27  31  32  33  34  35 0
 6-311+G(2d,p)
 ****
 36  37 0
 6-311+G(2d,p)
 ****
 1  2  3  4  5  17  18  19  20  21  22  23  24  25 0
 3-21G
 ****
 26  28  29  30  38  39  40  41  42  43  44  45 0
 3-21G
 ****


