%nproc=1
%NoSave
%Mem=1900MB
#P OB98/GEN NMR

erre ene a

0 1
  C      157.403     105.572     286.066
  O      156.211     105.118     285.463
  H      158.189     104.833     285.888
  H      157.255     105.676     287.145
  H      157.721     106.529     285.646
  P      155.008     106.154     285.258
  C      152.598     106.366     286.154
  O      153.882     105.792     286.342
  C      151.658     106.010     287.313
  O      151.438     104.579     287.337
  C      152.299     106.383     288.653
  O      151.325     106.694     289.644
  C      153.022     105.105     289.048
  O      153.281     105.021     290.447
  C      152.051     104.048     288.525
  N      153.158      99.345     290.145
  C      152.587     100.396     290.837
  N      152.292     100.170     292.136
  N      152.342     101.565     290.305
  C      152.758     101.670     289.020
  C      153.358     100.710     288.238
  C      153.587      99.408     288.827
  O      154.106      98.445     288.268
  N      153.654     101.194     286.987
  C      153.242     102.445     287.014
  N      152.677     102.777     288.223
  O      154.331     105.683     283.885
  O      155.398     107.600     285.209
  H      152.424     104.905     290.897
  H      153.865     106.427     283.463
  H      153.309      98.461     290.598
  H      153.321     103.145     286.192
  H      151.256     103.857     289.259
  H      153.989     105.087     288.538
  H      152.619      99.354     292.629
  H      152.989     107.222     288.558
  H      152.152     100.998     292.723
  H      150.681     106.480     287.165
  H      152.200     105.967     285.216
  H      152.681     107.450     286.044
  P      151.080     108.243     289.984
  C      152.501     110.080     291.203
  O      152.223     108.706     291.007
  O      149.745     108.227     290.864
  O      150.947     109.106     288.775
  H      148.992     108.550     290.338
  H      153.290     110.186     291.918
  H      151.623     110.573     291.565
  H      152.800     110.519     290.274

 6  7  8  9  10  11  12  13  14  15  26  29  33  34 0
 6-311+G(2d,p)
 ****
 36  38  39  40  41 0
 6-311+G(2d,p)
 ****
 1  2  3  4  5  16  17  18  19  20  21  22  23  24  25 0
 3-21G
 ****
 27  28  30  31  32  35  37  42  43  44  45  46  47 0
 3-21G
 ****
 48  49 0
 3-21G
 ****


