%nproc=1
%NoSave
%Mem=1900MB
#P OB98/GEN NMR

erre ene a

0 1
  C      155.277      -5.785    -587.686
  O      154.487      -4.630    -587.365
  P      154.714      -4.016    -585.892
  C      153.219      -5.774    -584.680
  O      154.517      -5.205    -584.824
  C      152.924      -6.154    -583.230
  O      151.513      -6.488    -583.100
  C      153.715      -7.355    -582.698
  O      154.041      -7.119    -581.317
  C      152.713      -8.492    -582.741
  O      153.048      -9.542    -581.839
  C      151.425      -7.731    -582.392
  N      146.918      -9.365    -580.772
  C      147.837      -8.546    -580.146
  N      147.523      -8.121    -578.899
  N      148.970      -8.174    -580.685
  C      149.138      -8.655    -581.945
  C      148.299      -9.470    -582.680
  C      147.074      -9.904    -582.044
  O      146.245     -10.671    -582.527
  N      148.816      -9.744    -583.914
  C      149.981      -9.103    -583.938
  N      150.216      -8.434    -582.759
  O      153.416      -3.091    -585.682
  O      155.968      -3.225    -585.748
  H      152.978      -9.177    -580.933
  H      153.686      -2.175    -585.481
  H      146.078      -9.636    -580.298
  H      150.683      -9.111    -584.751
  H      151.380      -7.518    -581.319
  H      152.678      -8.902    -583.760
  H      146.636      -8.309    -578.445
  H      154.622      -7.574    -583.263
  H      148.153      -7.484    -578.444
  H      153.100      -5.267    -582.599
  H      153.144      -6.663    -585.310
  H      152.482      -5.047    -585.044
  P      155.586      -6.825    -580.990
  C      156.152      -9.137    -579.920
  O      156.315      -8.263    -581.018
  O      155.565      -6.452    -579.430
  O      156.208      -5.759    -581.825
  H      156.317      -5.869    -579.214
  H      155.364      -8.808    -579.234
  H      157.097      -9.203    -579.371
  H      155.891     -10.135    -580.301
  H      155.049      -6.108    -588.680
  H      155.055      -6.572    -586.996
  H      156.316      -5.536    -587.622

 3  4  5  6  7  8  9  10  11  12  23  26  30  31  33  0
 6-311+G(2d,p)
 ****
 35  36  37  38 0
 6-311+G(2d,p)
 ****
 1  2  13  14  15  16  17  18  19  20  21  22  24  25  27  28  29 0
 3-21G
 ****
 32  34  39  40  41  42  43  44  45  46  47  48  49 0
 3-21G
 ****


