%nproc=1
%NoSave
%Mem=1900MB
#P OB98/GEN NMR

erre ene a

0 1
  C      -70.575      23.488     -55.637
  O      -70.980      22.604     -56.669
  P      -71.320      23.239     -58.104
  C      -69.859      23.994     -60.114
  O      -69.942      23.794     -58.710
  C      -68.833      25.078     -60.450
  O      -69.418      26.382     -60.172
  C      -67.522      24.985     -59.654
  O      -66.476      25.421     -60.530
  C      -67.757      25.985     -58.537
  O      -66.575      26.393     -57.868
  C      -68.498      27.078     -59.301
  N      -67.983      30.755     -55.789
  C      -67.072      30.082     -56.528
  N      -67.285      29.121     -57.450
  C      -68.600      28.879     -57.588
  C      -69.641      29.470     -56.893
  C      -69.291      30.454     -55.954
  N      -70.223      31.134     -55.195
  N      -70.854      28.946     -57.286
  C      -70.552      28.050     -58.202
  N      -69.205      27.990     -58.433
  O      -72.118      24.573     -57.727
  O      -72.109      22.352     -59.016
  H      -66.067      27.007     -58.434
  H      -72.853      24.732     -58.350
  H      -66.034      30.351     -56.355
  H      -71.262      27.416     -58.714
  H      -67.823      27.669     -59.932
  H      -68.410      25.530     -57.783
  H      -67.298      23.972     -59.305
  H      -68.627      25.036     -61.526
  H      -70.834      24.316     -60.492
  H      -69.863      31.667     -54.417
  H      -71.163      30.759     -55.177
  H      -69.605      23.047     -60.601
  P      -64.972      24.940     -60.241
  C      -63.779      22.689     -60.571
  O      -65.025      23.351     -60.467
  O      -64.924      25.036     -58.644
  O      -63.900      25.697     -60.944
  H      -65.680      24.580     -58.234
  H      -63.960      21.612     -60.623
  H      -63.161      22.903     -59.695
  H      -63.264      23.005     -61.482
  H      -70.383      22.930     -54.744
  H      -71.352      24.200     -55.452
  H      -69.685      24.001     -55.936

 3  4  5  6  7  8  9  10  11  12  22  25  29  30  31  32 0
 6-311+G(2d,p)
 ****
 33  36  37 0
 6-311+G(2d,p)
 ****
 1  2  13  14  15  16  17  18  19  20  21  23  24  26 0
 3-21G
 ****
 27  28  34  35  38  39  40  41  42  43  44  45  46  47  48 0
 3-21G
 ****


