%nproc=1
%NoSave
%Mem=1900MB
#P OB98/GEN NMR

erre ene a

0 1
  C      759.743    -294.013     104.522
  O      760.963    -294.767     104.427
  P      761.104    -296.237     105.057
  C      763.614    -296.038     105.645
  O      762.623    -296.737     104.884
  C      764.971    -296.045     104.946
  O      764.968    -295.151     103.807
  C      766.139    -295.608     105.821
  O      766.540    -296.665     106.685
  C      767.167    -295.198     104.772
  O      767.845    -296.354     104.260
  C      766.284    -294.570     103.692
  N      768.845    -290.210     102.885
  C      769.173    -291.504     102.661
  N      768.433    -292.613     102.907
  C      767.233    -292.276     103.414
  C      766.756    -291.007     103.698
  C      767.623    -289.926     103.415
  N      767.295    -288.612     103.646
  N      765.493    -291.058     104.240
  C      765.192    -292.352     104.269
  N      766.216    -293.126     103.772
  O      760.080    -297.215     104.571
  O      760.969    -296.019     106.638
  H      767.180    -296.912     103.802
  H      760.600    -296.826     107.055
  H      770.151    -291.673     102.233
  H      764.267    -292.761     104.612
  H      766.647    -294.823     102.683
  H      767.935    -294.521     105.176
  H      765.857    -294.731     106.416
  H      765.144    -297.051     104.552
  H      763.701    -296.515     106.624
  H      767.980    -287.907     103.455
  H      766.415    -288.408     104.087
  H      763.258    -295.003     105.784
  P      766.965    -296.357     108.196
  C      769.279    -297.482     108.245
  O      767.924    -297.550     108.667
  O      765.855    -296.025     109.126
  O      767.987    -295.122     108.056
  H      767.954    -294.578     108.859
  H      769.352    -297.834     107.204
  H      769.888    -298.135     108.882
  H      769.652    -296.464     108.309
  H      759.870    -293.067     104.038
  H      759.500    -293.856     105.552
  H      758.951    -294.554     104.047

 3  4  5  6  7  8  9  10  11  12  22  25  29  30  31  32 0
 6-311+G(2d,p)
 ****
 33  36  37 0
 6-311+G(2d,p)
 ****
 1  2  13  14  15  16  17  18  19  20  21  23  24  26 0
 3-21G
 ****
 27  28  34  35  38  39  40  41  42  43  44  45  46  47  48 0
 3-21G
 ****


