%nproc=1
%NoSave
%Mem=1900MB
#P OB98/GEN NMR

erre ene a

0 1
  C     -192.069    -448.730    -514.955
  O     -192.453    -448.547    -516.323
  P     -193.349    -449.698    -516.995
  C     -195.651    -448.447    -516.889
  O     -194.581    -448.936    -517.684
  C     -196.905    -449.293    -517.122
  O     -197.817    -449.175    -516.005
  C     -197.709    -448.883    -518.349
  O     -197.077    -449.301    -519.546
  C     -199.045    -449.563    -518.053
  O     -198.982    -450.952    -518.407
  C     -199.145    -449.411    -516.524
  N     -200.074    -448.362    -516.114
  C     -201.364    -448.455    -516.618
  O     -201.722    -449.348    -517.385
  N     -202.236    -447.477    -516.224
  C     -201.936    -446.417    -515.419
  O     -202.764    -445.574    -515.092
  C     -200.543    -446.342    -514.951
  C     -199.686    -447.300    -515.314
  O     -193.987    -450.390    -515.700
  O     -192.569    -450.608    -517.881
  H     -194.177    -449.756    -514.985
  H     -198.909    -450.987    -519.382
  H     -203.182    -447.534    -516.569
  H     -200.266    -445.503    -514.328
  H     -198.653    -447.261    -514.982
  H     -199.485    -450.352    -516.071
  H     -199.872    -449.119    -518.613
  H     -197.844    -447.795    -518.357
  H     -196.596    -450.342    -517.207
  H     -195.868    -447.406    -517.151
  H     -195.350    -448.471    -515.837
  P     -196.507    -448.142    -520.505
  C     -194.036    -447.566    -519.883
  O     -194.921    -448.377    -520.608
  O     -196.646    -446.858    -519.556
  O     -197.229    -448.030    -521.809
  H     -196.351    -447.028    -518.646
  H     -193.070    -448.076    -519.798
  H     -194.409    -447.357    -518.875
  H     -193.878    -446.618    -520.417
  H     -191.480    -447.896    -514.635
  H     -191.495    -449.629    -514.863
  H     -192.945    -448.802    -514.345

 3  4  5  6  7  8  9  10  11  12  13  24  28  29  30  31  32 0
 6-311+G(2d,p)
 ****
 33  34 0
 6-311+G(2d,p)
 ****
 1  2  14  15  16  17  18  19  20  21  22  23  25  26  27 0
 3-21G
 ****
 35  36  37  38  39  40  41  42  43  44  45 0
 3-21G
 ****


