%nproc=1
%NoSave
%Mem=1900MB
#P OB98/GEN NMR

erre ene a

0 1
  C      -35.715     336.932     605.371
  O      -35.908     335.659     604.794
  H      -35.950     336.870     606.438
  H      -36.393     337.653     604.904
  H      -34.686     337.273     605.257
  P      -35.299     335.376     603.339
  C      -36.158     335.500     600.902
  O      -36.485     335.624     602.276
  C      -37.272     336.045     600.012
  O      -38.501     335.327     600.279
  C      -37.555     337.525     600.342
  O      -38.054     338.242     599.221
  C      -38.642     337.433     601.397
  O      -39.400     338.634     601.522
  C      -39.438     336.229     600.901
  N      -43.845     335.716     603.417
  C      -43.485     336.660     602.467
  N      -44.412     337.602     602.161
  N      -42.319     336.680     601.879
  C      -41.468     335.729     602.334
  C      -41.698     334.763     603.289
  C      -43.015     334.723     603.900
  O      -43.389     333.923     604.751
  N      -40.586     333.979     603.501
  C      -39.675     334.478     602.679
  N      -40.167     335.533     601.942
  O      -35.137     333.779     603.297
  O      -34.010     336.072     603.021
  H      -38.767     339.373     601.590
  H      -34.442     333.523     602.659
  H      -44.767     335.737     603.821
  H      -38.663     334.114     602.581
  H      -40.175     336.539     600.141
  H      -38.163     337.250     602.374
  H      -45.252     337.720     602.704
  H      -36.665     338.029     600.728
  H      -44.071     338.450     601.700
  H      -37.040     335.894     598.957
  H      -36.001     334.438     600.700
  H      -35.210     336.012     600.694
  P      -37.421     339.692     598.918
  C      -37.919     342.154     599.705
  O      -38.320     340.786     599.664
  O      -37.717     339.924     597.366
  O      -35.958     339.773     599.232
  H      -36.916     339.805     596.845
  H      -38.647     342.723     600.245
  H      -37.839     342.532     598.707
  H      -36.970     342.233     600.193

 6  7  8  9  10  11  12  13  14  15  26  29  33  34 0
 6-311+G(2d,p)
 ****
 36  38  39  40  41 0
 6-311+G(2d,p)
 ****
 1  2  3  4  5  16  17  18  19  20  21  22  23  24  25 0
 3-21G
 ****
 27  28  30  31  32  35  37  42  43  44  45  46  47 0
 3-21G
 ****
 48  49 0
 3-21G
 ****


