%nproc=1
%NoSave
%Mem=1900MB
#P OB98/GEN NMR

erre ene a

0 1
  C      105.018    -500.523    -650.999
  O      106.168    -499.953    -651.586
  H      105.290    -500.945    -650.028
  H      104.634    -501.326    -651.635
  H      104.248    -499.764    -650.854
  P      105.978    -499.259    -653.017
  C      104.752    -500.070    -655.163
  O      105.536    -500.421    -654.031
  C      104.587    -501.283    -656.070
  O      103.760    -502.275    -655.409
  C      103.879    -500.981    -657.384
  O      104.743    -500.383    -658.336
  C      103.406    -502.368    -657.792
  O      104.443    -503.102    -658.454
  C      103.067    -503.017    -656.445
  N       99.121    -505.938    -655.060
  C      100.446    -506.191    -655.150
  N      101.438    -505.353    -655.517
  C      100.944    -504.132    -655.779
  C       99.624    -503.719    -655.724
  C       98.680    -504.692    -655.340
  N       97.330    -504.439    -655.275
  N       99.508    -502.393    -656.103
  C      100.738    -502.014    -656.372
  N      101.640    -503.022    -656.185
  O      107.481    -498.920    -653.461
  O      105.113    -498.045    -653.023
  H      105.155    -503.216    -657.796
  H      107.668    -497.976    -653.286
  H      100.747    -507.210    -654.906
  H      101.027    -501.022    -656.703
  H      103.414    -504.056    -656.385
  H      102.561    -502.306    -658.476
  H      103.000    -500.346    -657.202
  H      105.576    -501.732    -656.250
  H      105.259    -499.274    -655.722
  H      103.774    -499.704    -654.823
  H       96.706    -505.200    -655.060
  H       96.979    -503.546    -655.592
  P      104.073    -499.569    -659.543
  C      101.976    -500.124    -660.990
  O      103.155    -500.601    -660.352
  O      105.291    -499.284    -660.538
  O      103.375    -498.309    -659.137
  H      105.178    -498.406    -660.963
  H      101.483    -500.936    -661.482
  H      102.237    -499.377    -661.710
  H      101.321    -499.700    -660.258

 6  7  8  9  10  11  12  13  14  15  25  28  32  33  34  35 0
 6-311+G(2d,p)
 ****
 36  37  40 0
 6-311+G(2d,p)
 ****
 1  2  3  4  5  16  17  18  19  20  21  22  23  24 0
 3-21G
 ****
 26  27  29  30  31  38  39 41  42  43  44  45  46  47  48 0
 3-21G
 ****


