%nproc=1
%NoSave
%Mem=1900MB
#P OB98/GEN NMR

erre ene a

0 1
  C       50.523    -271.219    -200.954
  O       50.131    -270.460    -199.823
  P       48.631    -269.932    -199.669
  C       49.477    -267.834    -198.338
  O       48.675    -268.366    -199.370
  C       49.143    -266.345    -198.168
  O       49.363    -265.642    -199.407
  C       47.686    -266.140    -197.760
  O       47.570    -266.031    -196.350
  C       47.311    -264.868    -198.498
  O       47.765    -263.713    -197.771
  C       48.111    -265.025    -199.812
  N       47.524    -265.845    -200.889
  C       46.327    -265.453    -201.480
  O       45.721    -264.429    -201.182
  N       45.825    -266.309    -202.432
  C       46.420    -267.458    -202.861
  O       45.854    -268.325    -203.521
  C       47.792    -267.671    -202.403
  C       48.267    -266.882    -201.437
  O       48.167    -270.562    -198.273
  O       47.704    -270.295    -200.781
  H       47.380    -263.765    -196.878
  H       47.639    -271.370    -198.417
  H       44.889    -266.100    -202.764
  H       48.356    -268.493    -202.824
  H       49.272    -267.045    -201.053
  H       48.347    -264.048    -200.246
  H       46.231    -264.766    -198.584
  H       47.066    -266.962    -198.143
  H       49.815    -265.915    -197.413
  H       50.534    -267.961    -198.582
  H       49.292    -268.371    -197.403
  P       46.365    -266.764    -195.597
  C       46.939    -265.398    -193.506
  O       45.929    -265.761    -194.426
  O       46.630    -268.170    -195.171
  O       45.166    -266.682    -196.656
  H       45.101    -267.522    -197.152
  H       46.566    -264.583    -192.876
  H       47.835    -265.062    -194.033
  H       47.180    -266.254    -192.868
  H       51.558    -271.475    -200.870
  H       50.369    -270.642    -201.842
  H       49.937    -272.113    -201.004

 3  4  5  6  7  8  9  10  11  12  13  23  28  29  30  31  32 0
 6-311+G(2d,p)
 ****
 33  34 0
 6-311+G(2d,p)
 ****
 1  2  14  15  16  17  18  19  20  21  22  24  25  26  27 0
 3-21G
 ****
 35  36  37  38  39  40  41  42  43  44  45 0
 3-21G
 ****


