%nproc=1
%NoSave
%Mem=1900MB
#P OB98/GEN NMR

erre ene a

0 1
  C     2043.356    -525.281    -448.227
  O     2043.644    -526.688    -448.020
  P     2042.689    -527.541    -447.020
  C     2042.269    -529.547    -448.609
  O     2041.666    -528.447    -447.919
  C     2041.166    -530.415    -449.255
  O     2040.172    -530.859    -448.213
  C     2040.351    -529.681    -450.344
  O     2039.951    -530.581    -451.368
  C     2039.104    -529.233    -449.577
  O     2038.046    -528.948    -450.495
  C     2038.904    -530.444    -448.672
  N     2034.175    -530.754    -446.633
  C     2034.706    -531.293    -447.762
  N     2035.996    -531.174    -448.227
  C     2036.739    -530.472    -447.358
  C     2036.358    -529.892    -446.149
  C     2035.000    -530.060    -445.782
  N     2034.475    -529.543    -444.637
  N     2037.436    -529.226    -445.540
  C     2038.431    -529.361    -446.412
  N     2038.034    -530.139    -447.540
  O     2042.019    -526.768    -445.956
  O     2043.684    -528.667    -446.407
  H     2037.245    -528.809    -450.008
  H     2043.526    -528.694    -445.467
  H     2034.041    -531.842    -448.401
  H     2039.376    -528.915    -446.251
  H     2038.446    -531.286    -449.196
  H     2039.342    -528.357    -448.983
  H     2040.889    -528.841    -450.807
  H     2041.614    -531.333    -449.646
  H     2042.850    -530.168    -447.911
  H     2033.498    -529.600    -444.496
  H     2034.989    -528.899    -444.046
  H     2042.971    -529.174    -449.361
  P     2041.042    -530.927    -452.502
  C     2040.916    -533.549    -452.105
  O     2041.724    -532.285    -452.121
  O     2041.980    -529.765    -452.769
  O     2040.098    -531.255    -453.761
  H     2039.424    -531.915    -453.600
  H     2041.609    -534.346    -451.863
  H     2040.438    -533.615    -453.025
  H     2040.210    -533.434    -451.256
  H     2044.071    -524.867    -448.907
  H     2043.412    -524.764    -447.292
  H     2042.373    -525.174    -448.635

 3  4  5  6  7  8  9  10  11  12  22  25  29  30  31  32 0
 6-311+G(2d,p)
 ****
 33  36  37 0
 6-311+G(2d,p)
 ****
 1  2  13  14  15  16  17  18  19  20  21  23  24  26 0
 3-21G
 ****
 27  28  34  35  38  39  40  41  42  43  44  45  46  47  48 0
 3-21G
 ****


