%nproc=1
%NoSave
%Mem=1900MB
#P OB98/GEN NMR

erre ene a

0 1
  C     -897.599     617.590     124.083
  O     -898.807     616.866     124.138
  P     -899.740     616.635     122.878
  C     -898.198     614.740     121.918
  O     -898.877     615.985     121.695
  C     -898.935     613.571     121.236
  O     -899.223     613.951     119.868
  C     -898.050     612.302     121.196
  O     -898.773     611.112     121.494
  C     -897.386     612.401     119.827
  O     -896.883     611.157     119.356
  C     -898.479     613.070     118.992
  N     -896.031     612.916     114.541
  C     -896.526     611.872     115.283
  N     -896.148     610.629     114.920
  N     -897.276     612.038     116.344
  C     -897.454     613.338     116.695
  C     -897.025     614.453     116.009
  C     -896.218     614.271     114.837
  O     -895.690     615.158     114.189
  N     -897.355     615.606     116.689
  C     -897.955     615.187     117.790
  N     -898.011     613.819     117.847
  O     -900.683     617.740     122.522
  O     -900.630     615.364     123.366
  H     -896.347     610.786     120.080
  H     -901.519     615.484     122.988
  H     -895.386     612.721     113.768
  H     -898.346     615.818     118.560
  H     -899.190     612.316     118.601
  H     -896.528     613.081     119.947
  H     -895.455     610.504     114.201
  H     -897.299     612.341     121.978
  H     -896.272     609.879     115.569
  H     -899.901     613.408     121.751
  H     -898.190     614.597     123.003
  H     -897.174     614.798     121.578
  P     -898.219     609.705     121.997
  C     -898.664     609.870     124.528
  O     -897.682     609.896     123.508
  O     -896.869     609.471     121.179
  O     -899.129     608.543     121.808
  H     -896.772     608.531     120.935
  H     -898.229     610.281     125.458
  H     -898.997     608.857     124.708
  H     -899.529     610.486     124.241
  H     -897.150     617.609     125.054
  H     -897.798     618.591     123.762
  H     -896.932     617.119     123.391

 3  4  5  6  7  8  9  10  11  12  23  26  30  31 0
 6-311+G(2d,p)
 ****
 33  35  36  37  38 0
 6-311+G(2d,p)
 ****
 1  2  13  14  15  16  17  18  19  20  21  22  24  25 0
 3-21G
 ****
 27  28  29  32  34  39  40  41  42  43  44  45  46  47  48  49 0
 3-21G
 ****


