%nproc=1
%NoSave
%Mem=1900MB
#P OB98/GEN NMR

erre ene a

0 1
  C     -317.922    -123.647     354.525
  O     -317.218    -123.111     353.421
  H     -317.790    -123.001     355.396
  H     -318.986    -123.691     354.273
  H     -317.570    -124.657     354.751
  P     -315.616    -123.121     353.512
  C     -315.626    -120.696     352.571
  O     -315.113    -122.016     352.458
  C     -315.266    -119.875     351.333
  O     -313.841    -120.011     351.081
  C     -316.007    -120.317     350.070
  O     -316.347    -119.159     349.304
  C     -314.975    -121.145     349.325
  O     -315.221    -121.186     347.923
  C     -313.681    -120.435     349.713
  N     -310.847    -123.112     346.415
  C     -311.874    -122.256     346.235
  N     -312.572    -121.578     347.170
  C     -312.078    -121.821     348.399
  C     -311.037    -122.668     348.739
  C     -310.413    -123.346     347.679
  N     -309.388    -124.248     347.855
  N     -310.851    -122.677     350.109
  C     -311.762    -121.850     350.581
  N     -312.528    -121.309     349.586
  O     -315.244    -124.511     352.806
  O     -315.043    -123.018     354.883
  H     -315.261    -120.265     347.591
  H     -315.373    -125.243     353.440
  H     -312.181    -122.100     345.202
  H     -311.910    -121.615     351.627
  H     -313.485    -119.549     349.096
  H     -314.985    -122.175     349.700
  H     -316.912    -120.888     350.286
  H     -315.447    -118.815     351.551
  H     -315.200    -120.224     353.463
  H     -309.037    -124.732     347.045
  H     -309.095    -124.478     348.792
  H     -316.717    -120.743     352.680
  P     -317.822    -118.560     349.514
  C     -317.970    -118.260     346.944
  O     -318.212    -117.687     348.223
  O     -317.617    -117.465     350.665
  O     -318.831    -119.587     349.915
  H     -318.280    -117.591     351.368
  H     -318.275    -117.573     346.182
  H     -318.527    -119.169     346.849
  H     -316.926    -118.469     346.839

 6  7  8  9  10  11  12  13  14  15  25  28  32  33  34  35 0
 6-311+G(2d,p)
 ****
 36  39  40 0
 6-311+G(2d,p)
 ****
 1  2  3  4  5  16  17  18  19  20  21  22  23  24 0
 3-21G
 ****
 26  27  29  30  31  37  38  41  42  43  44  45  46  47 0
 3-21G
 ****
 48 0
 3-21G
 ****


