%nproc=1
%NoSave
%Mem=1900MB
#P OB98/GEN NMR

erre ene a

0 1
  C      -76.375     209.981      -2.184
  O      -76.458     208.601      -1.898
  H      -77.020     210.198      -3.040
  H      -75.348     210.257      -2.439
  H      -76.715     210.576      -1.330
  P      -75.709     208.033      -0.598
  C      -73.535     207.441      -1.846
  O      -74.138     208.240      -0.838
  C      -73.328     206.018      -1.330
  O      -72.826     205.165      -2.386
  C      -72.316     205.915      -0.195
  O      -72.875     206.370       1.024
  C      -71.997     204.429      -0.241
  O      -73.022     203.655       0.402
  C      -71.994     204.160      -1.766
  N      -70.641     204.162      -2.338
  C      -69.781     203.165      -1.883
  O      -70.108     202.326      -1.049
  N      -68.510     203.198      -2.394
  C      -68.008     204.162      -3.223
  O      -66.812     204.280      -3.479
  C      -68.977     205.141      -3.728
  C      -70.227     205.108      -3.257
  O      -76.108     206.659      -0.167
  O      -76.042     209.122       0.533
  H      -76.759     208.781       1.104
  H      -73.876     204.038       0.128
  H      -67.866     202.512      -2.035
  H      -68.636     205.885      -4.437
  H      -70.956     205.843      -3.594
  H      -72.454     203.189      -1.985
  H      -71.055     204.188       0.257
  H      -71.410     206.478      -0.445
  H      -74.306     205.624      -1.018
  H      -72.560     207.879      -2.102
  H      -74.171     207.443      -2.737
  P      -72.328     207.693       1.740
  C      -71.449     206.402       3.773
  O      -71.116     207.268       2.701
  O      -73.375     208.532       2.399
  O      -71.596     208.506       0.572
  H      -71.948     209.415       0.544
  H      -70.570     206.187       4.344
  H      -71.853     205.491       3.383
  H      -72.175     206.875       4.401

 6  7  8  9  10  11  12  13  14  15  16  27  31  32  33  34  35 0
 6-311+G(2d,p)
 ****
 36  37 0
 6-311+G(2d,p)
 ****
 1  2  3  4  5  17  18  19  20  21  22  23  24  25 0
 3-21G
 ****
 26  28  29  30  38  39  40  41  42  43  44  45 0
 3-21G
 ****


