%nproc=1
%NoSave
%Mem=1900MB
#P OB98/GEN NMR

erre ene a

0 1
  C      125.910    -764.054    -461.753
  O      125.581    -764.610    -463.006
  H      125.041    -763.521    -461.363
  H      126.730    -763.340    -461.874
  H      126.196    -764.830    -461.038
  P      126.555    -765.752    -463.582
  C      127.139    -764.000    -465.408
  O      126.866    -765.364    -465.110
  C      126.853    -763.714    -466.881
  O      127.765    -764.521    -467.700
  C      125.414    -764.041    -467.318
  O      124.995    -763.065    -468.287
  C      125.579    -765.369    -468.037
  O      124.529    -765.621    -468.965
  C      126.949    -765.183    -468.678
  N      127.123    -768.419    -472.509
  C      126.629    -767.137    -472.445
  N      126.034    -766.648    -473.553
  N      126.713    -766.383    -471.377
  C      127.349    -766.993    -470.343
  C      127.880    -768.252    -470.279
  C      127.777    -769.076    -471.460
  O      128.170    -770.227    -471.574
  N      128.391    -768.509    -469.033
  C      128.149    -767.405    -468.335
  N      127.516    -766.458    -469.097
  O      125.576    -767.013    -463.708
  O      127.746    -766.054    -462.744
  H      124.513    -764.892    -469.623
  H      125.646    -767.565    -462.905
  H      127.023    -768.964    -473.352
  H      128.384    -767.262    -467.288
  H      126.903    -764.545    -469.581
  H      125.594    -766.193    -467.311
  H      125.962    -767.152    -474.425
  H      124.692    -764.082    -466.501
  H      125.696    -765.698    -473.534
  H      127.098    -762.660    -467.084
  H      128.183    -763.791    -465.196
  H      126.519    -763.368    -464.769
  P      124.407    -761.675    -467.742
  C      122.357    -762.525    -466.367
  O      122.828    -761.847    -467.535
  O      124.497    -760.722    -469.025
  O      125.158    -761.120    -466.581
  H      124.699    -759.801    -468.735
  H      121.287    -762.555    -466.379
  H      122.689    -762.004    -465.494
  H      122.742    -763.523    -466.355

 6  7  8  9  10  11  12  13  14  15  26  29  33  34 0
 6-311+G(2d,p)
 ****
 36  38  39  40  41 0
 6-311+G(2d,p)
 ****
 1  2  3  4  5  16  17  18  19  20  21  22  23  24  25 0
 3-21G
 ****
 27  28  30  31  32  35  37  42  43  44  45  46  47 0
 3-21G
 ****
 48  49 0
 3-21G
 ****


