%nproc=1
%NoSave
%Mem=1900MB
#P OB98/GEN NMR

erre ene a

0 1
  C     -253.705    -536.639     200.115
  O     -252.435    -536.107     200.422
  H     -253.730    -536.893     199.054
  H     -254.481    -535.896     200.318
  H     -253.905    -537.545     200.694
  P     -252.014    -535.952     201.958
  C     -249.612    -536.851     201.644
  O     -250.423    -535.738     201.989
  C     -248.123    -536.505     201.789
  O     -247.807    -535.413     200.884
  C     -247.791    -536.023     203.201
  O     -246.438    -536.292     203.562
  C     -247.981    -534.517     203.101
  O     -247.258    -533.790     204.095
  C     -247.502    -534.251     201.673
  N     -246.846    -529.443     200.112
  C     -246.004    -530.233     200.864
  N     -244.828    -529.674     201.243
  N     -246.294    -531.457     201.223
  C     -247.529    -531.861     200.831
  C     -248.461    -531.158     200.107
  C     -248.112    -529.813     199.682
  O     -248.836    -529.060     199.037
  N     -249.603    -531.894     199.906
  C     -249.365    -533.040     200.516
  N     -248.109    -533.078     201.074
  O     -252.172    -537.435     202.543
  O     -252.810    -534.961     202.754
  H     -247.603    -534.060     204.966
  H     -252.282    -537.408     203.508
  H     -246.561    -528.516     199.831
  H     -250.056    -533.868     200.574
  H     -246.418    -534.106     201.648
  H     -249.041    -534.297     203.241
  H     -244.665    -528.690     201.153
  H     -248.450    -536.450     203.959
  H     -244.358    -530.117     202.036
  H     -247.512    -537.356     201.484
  H     -249.852    -537.112     200.613
  H     -249.867    -537.716     202.266
  P     -246.134    -537.536     204.520
  C     -243.554    -537.905     204.027
  O     -244.587    -537.549     204.927
  O     -246.288    -538.808     203.568
  O     -247.030    -537.623     205.718
  H     -247.039    -539.359     203.848
  H     -242.609    -537.839     204.525
  H     -243.564    -537.238     203.191
  H     -243.708    -538.907     203.685

 6  7  8  9  10  11  12  13  14  15  26  29  33  34 0
 6-311+G(2d,p)
 ****
 36  38  39  40  41 0
 6-311+G(2d,p)
 ****
 1  2  3  4  5  16  17  18  19  20  21  22  23  24  25 0
 3-21G
 ****
 27  28  30  31  32  35  37  42  43  44  45  46  47 0
 3-21G
 ****
 48  49 0
 3-21G
 ****


