%nproc=1
%NoSave
%Mem=1900MB
#P OB98/GEN NMR

erre ene a

0 1
  C      384.579     266.245     125.129
  O      385.846     266.803     125.485
  P      386.141     268.331     125.092
  C      387.984     267.633     123.312
  O      387.583     268.445     124.402
  C      389.469     267.890     123.005
  O      389.646     269.261     122.574
  C      390.382     267.678     124.204
  O      390.782     266.332     124.334
  C      391.527     268.626     123.898
  O      392.402     268.053     122.912
  C      390.756     269.842     123.312
  N      390.232     270.856     124.245
  C      391.106     271.707     124.926
  O      392.333     271.662     124.807
  N      390.529     272.619     125.766
  C      389.193     272.902     125.856
  O      388.737     273.784     126.582
  C      388.317     272.090     125.009
  C      388.864     271.104     124.266
  O      386.348     269.044     126.512
  O      385.070     268.984     124.287
  H      391.846     267.792     122.154
  H      385.647     269.709     126.655
  H      391.155     273.197     126.311
  H      387.262     272.302     125.031
  H      388.226     270.502     123.644
  H      391.394     270.374     122.599
  H      392.138     268.810     124.783
  H      389.889     268.022     125.122
  H      389.767     267.230     122.185
  H      387.373     267.843     122.429
  H      387.828     266.574     123.571
  P      390.132     265.406     125.472
  C      392.394     265.137     126.670
  O      391.335     264.471     126.005
  O      388.884     264.687     125.099
  O      389.917     266.412     126.691
  H      388.988     266.758     126.703
  H      393.056     264.397     127.111
  H      392.000     265.782     127.455
  H      392.975     265.729     125.950
  H      384.533     265.227     125.456
  H      384.458     266.284     124.067
  H      383.798     266.806     125.598

 3  4  5  6  7  8  9  10  11  12  13  23  28  29  30  31  32 0
 6-311+G(2d,p)
 ****
 33  34 0
 6-311+G(2d,p)
 ****
 1  2  14  15  16  17  18  19  20  21  22  24  25  26  27 0
 3-21G
 ****
 35  36  37  38  39  40  41  42  43  44  45 0
 3-21G
 ****


