%nproc=1
%NoSave
%Mem=1900MB
#P OB98/GEN NMR

erre ene a

0 1
  C     -307.824     329.845     -70.235
  O     -308.917     329.489     -69.412
  H     -307.607     329.014     -70.911
  H     -306.944     330.032     -69.615
  H     -308.058     330.732     -70.830
  P     -309.612     330.673     -68.578
  C     -311.365     331.070     -70.451
  O     -310.331     331.625     -69.653
  C     -312.729     331.408     -69.857
  O     -312.884     332.837     -69.723
  C     -313.915     330.923     -70.688
  O     -314.216     329.558     -70.425
  C     -315.014     331.836     -70.165
  O     -315.467     331.366     -68.877
  C     -314.273     333.168     -70.009
  N     -317.273     335.880     -73.072
  C     -317.603     335.069     -72.006
  N     -318.916     334.955     -71.716
  N     -316.724     334.419     -71.286
  C     -315.447     334.606     -71.701
  C     -314.997     335.379     -72.752
  C     -315.976     336.106     -73.524
  O     -315.737     336.845     -74.475
  N     -313.631     335.323     -72.869
  C     -313.260     334.500     -71.910
  N     -314.322     334.034     -71.177
  O     -308.358     331.537     -68.080
  O     -310.457     330.231     -67.431
  H     -315.993     330.561     -69.036
  H     -308.189     331.333     -67.140
  H     -317.990     336.350     -73.601
  H     -312.237     334.215     -71.701
  H     -314.651     333.755     -69.160
  H     -315.890     331.853     -70.818
  H     -319.645     335.408     -72.246
  H     -313.763     331.105     -71.760
  H     -319.179     334.368     -70.938
  H     -312.767     330.980     -68.845
  H     -311.239     329.984     -70.491
  H     -311.290     331.480     -71.467
  P     -314.928     328.702     -71.575
  C     -312.738     328.380     -72.933
  O     -314.060     328.903     -72.917
  O     -316.259     329.543     -71.865
  O     -315.242     327.292     -71.223
  H     -317.042     329.037     -71.568
  H     -312.285     328.586     -73.880
  H     -312.771     327.322     -72.775
  H     -312.164     328.839     -72.155

 6  7  8  9  10  11  12  13  14  15  26  29  33  34 0
 6-311+G(2d,p)
 ****
 36  38  39  40  41 0
 6-311+G(2d,p)
 ****
 1  2  3  4  5  16  17  18  19  20  21  22  23  24  25 0
 3-21G
 ****
 27  28  30  31  32  35  37  42  43  44  45  46  47 0
 3-21G
 ****
 48  49 0
 3-21G
 ****


