%nproc=1
%NoSave
%Mem=1900MB
#P OB98/GEN NMR

erre ene a

0 1
  C      169.422    -103.471     -65.962
  O      168.856    -103.230     -64.690
  P      169.554    -103.770     -63.355
  C      168.682    -106.195     -63.446
  O      169.818    -105.343     -63.574
  C      169.129    -107.629     -63.135
  O      167.949    -108.492     -63.111
  C      170.107    -108.194     -64.183
  O      171.316    -108.729     -63.638
  C      169.244    -109.184     -64.948
  O      169.981    -110.169     -65.650
  C      168.292    -109.678     -63.855
  N      167.116    -110.357     -64.397
  C      167.338    -111.498     -65.164
  O      168.447    -111.968     -65.403
  N      166.229    -112.070     -65.722
  C      164.963    -111.565     -65.689
  O      164.031    -112.077     -66.293
  C      164.797    -110.334     -64.894
  C      165.855    -109.807     -64.272
  O      168.845    -103.440     -62.086
  O      171.036    -103.170     -63.450
  H      170.631    -110.554     -65.032
  H      171.541    -103.446     -64.237
  H      166.377    -112.895     -66.281
  H      163.806    -109.905     -64.856
  H      165.763    -108.902     -63.681
  H      168.794    -110.360     -63.163
  H      168.673    -108.620     -65.699
  H      170.451    -107.409     -64.868
  H      169.577    -107.629     -62.137
  H      168.133    -106.188     -64.387
  H      168.013    -105.810     -62.670
  P      172.783    -108.131     -63.890
  C      173.611    -109.931     -65.571
  O      173.263    -108.580     -65.347
  O      173.767    -108.381     -62.793
  O      172.519    -106.558     -64.060
  H      173.303    -106.062     -63.766
  H      174.353    -109.973     -66.373
  H      172.723    -110.484     -65.890
  H      174.033    -110.395     -64.677
  H      168.805    -103.029     -66.716
  H      169.489    -104.526     -66.129
  H      170.401    -103.040     -66.004

 3  4  5  6  7  8  9  10  11  12  13  23  28  29  30  31  32 0
 6-311+G(2d,p)
 ****
 33  34 0
 6-311+G(2d,p)
 ****
 1  2  14  15  16  17  18  19  20  21  22  24  25  26  27 0
 3-21G
 ****
 35  36  37  38  39  40  41  42  43  44  45 0
 3-21G
 ****


