%nproc=1
%NoSave
%Mem=1900MB
#P OB98/GEN NMR

erre ene a

0 1
  C      -56.415     -74.304      86.977
  O      -55.138     -74.228      86.380
  H      -57.041     -73.510      86.561
  H      -56.341     -74.158      88.057
  H      -56.885     -75.267      86.762
  P      -54.021     -75.291      86.825
  C      -54.338     -76.589      84.606
  O      -54.411     -76.629      86.022
  C      -53.422     -77.696      84.093
  O      -53.812     -78.984      84.616
  C      -53.426     -77.882      82.580
  O      -52.736     -76.864      81.876
  C      -52.731     -79.227      82.480
  O      -51.319     -79.060      82.698
  C      -53.394     -79.989      83.651
  N      -54.535     -80.796      83.223
  C      -54.304     -82.165      83.045
  O      -53.187     -82.643      83.234
  N      -55.340     -82.962      82.620
  C      -56.498     -82.434      82.372
  N      -57.486     -83.269      81.948
  C      -56.780     -80.995      82.527
  C      -55.768     -80.244      82.953
  O      -53.827     -75.460      88.297
  O      -52.697     -74.829      86.055
  H      -50.995     -78.457      82.004
  H      -51.970     -75.449      86.305
  H      -57.754     -80.600      82.280
  H      -55.896     -79.174      83.086
  H      -52.668     -80.640      84.154
  H      -52.853     -79.705      81.507
  H      -54.449     -77.991      82.202
  H      -52.412     -77.488      84.470
  H      -57.263     -84.251      81.850
  H      -53.966     -75.603      84.311
  H      -58.396     -82.934      81.659
  H      -55.332     -76.737      84.175
  P      -53.421     -76.317      80.529
  C      -54.445     -74.232      81.721
  O      -54.669     -75.427      80.990
  O      -54.085     -77.629      79.904
  O      -52.493     -75.631      79.577
  H      -53.517     -78.005      79.204
  H      -55.384     -73.769      81.944
  H      -53.847     -73.564      81.137
  H      -53.935     -74.462      82.633

 6  7  8  9  10  11  12  13  14  15  16  26  30  31  32  33  35 0
 6-311+G(2d,p)
 ****
 37  38 0
 6-311+G(2d,p)
 ****
 1  2  3  4  5  17  18  19  20  21  22  23  24  25 0
 3-21G
 ****
 27  28  29  34  36  39  40  41  42  43  44  45  46 0
 3-21G
 ****


