%nproc=1
%NoSave
%Mem=1900MB
#P OB98/GEN NMR

erre ene a

0 1
  C       15.031    -339.121      78.384
  O       14.517    -340.380      78.002
  H       15.663    -339.251      79.268
  H       14.212    -338.442      78.635
  H       15.635    -338.693      77.579
  P       13.653    -340.434      76.654
  C       11.444    -341.361      77.679
  O       12.117    -340.256      77.095
  C       10.222    -340.871      78.456
  O        9.388    -342.018      78.779
  C       10.577    -340.178      79.777
  O        9.666    -339.100      79.999
  C       10.354    -341.266      80.814
  O       10.106    -340.768      82.120
  C        9.158    -342.006      80.204
  N        9.018    -343.365      80.717
  C        8.309    -343.534      81.901
  O        7.729    -342.633      82.505
  N        8.279    -344.813      82.397
  C        8.892    -345.902      81.850
  O        8.850    -347.019      82.354
  C        9.636    -345.659      80.605
  C        9.664    -344.422      80.103
  O       13.731    -341.977      76.225
  O       14.091    -339.516      75.566
  H       14.496    -342.129      75.637
  H       10.058    -341.532      82.731
  H        7.769    -344.954      83.255
  H       10.141    -346.500      80.149
  H       10.212    -344.209      79.195
  H        8.232    -341.445      80.380
  H       11.228    -341.923      80.862
  H       11.604    -339.805      79.796
  H        9.628    -340.212      77.809
  H       12.127    -341.872      78.364
  H       11.141    -342.057      76.891
  P       10.074    -337.655      79.428
  C       11.189    -336.797      81.633
  O       11.355    -337.192      80.281
  O        8.881    -336.748      79.976
  O       10.254    -337.644      77.944
  H        8.574    -337.004      80.862
  H       12.138    -336.523      82.044
  H       10.779    -337.610      82.194
  H       10.524    -335.960      81.681

 6  7  8  9  10  11  12  13  14  15  16  27  31  32  33  34  35 0
 6-311+G(2d,p)
 ****
 36  37 0
 6-311+G(2d,p)
 ****
 1  2  3  4  5  17  18  19  20  21  22  23  24  25 0
 3-21G
 ****
 26  28  29  30  38  39  40  41  42  43  44  45 0
 3-21G
 ****


