%nproc=1
%NoSave
%Mem=1900MB
#P OB98/GEN NMR

erre ene a

0 1
  C      -65.325       4.763      57.768
  O      -65.205       4.158      59.039
  H      -65.790       4.050      57.083
  H      -64.339       5.034      57.382
  H      -65.955       5.654      57.835
  P      -64.439       5.008      60.167
  C      -62.165       6.268      59.960
  O      -62.946       5.144      59.586
  C      -60.970       6.408      59.023
  O      -61.403       6.412      57.643
  C      -60.174       7.698      59.198
  O      -59.313       7.679      60.323
  C      -59.399       7.706      57.893
  O      -58.338       6.735      57.955
  C      -60.497       7.272      56.898
  N      -61.223       8.404      56.317
  C      -60.776       8.865      55.073
  O      -59.819       8.335      54.514
  N      -61.406       9.946      54.505
  C      -62.407      10.505      55.110
  N      -62.988      11.572      54.499
  C      -62.918      10.045      56.413
  C      -62.289       9.004      56.953
  O      -64.255       3.959      61.362
  O      -65.078       6.295      60.565
  H      -57.725       7.037      58.650
  H      -63.662       4.338      62.055
  H      -63.748      10.552      56.886
  H      -62.610       8.608      57.910
  H      -60.074       6.673      56.082
  H      -58.937       8.667      57.670
  H      -60.831       8.575      59.224
  H      -60.332       5.526      59.161
  H      -62.576      11.901      53.635
  H      -61.821       6.121      60.989
  H      -63.669      12.164      54.956
  H      -62.770       7.179      59.913
  P      -58.992       9.086      61.028
  C      -57.953      11.219      59.956
  O      -57.876       9.810      60.135
  O      -58.194       8.660      62.345
  O      -60.195       9.919      61.346
  H      -58.391       9.266      63.085
  H      -57.141      11.545      59.340
  H      -57.895      11.703      60.908
  H      -58.881      11.469      59.485

 6  7  8  9  10  11  12  13  14  15  16  26  30  31  32  33  35 0
 6-311+G(2d,p)
 ****
 37  38 0
 6-311+G(2d,p)
 ****
 1  2  3  4  5  17  18  19  20  21  22  23  24  25 0
 3-21G
 ****
 27  28  29  34  36  39  40  41  42  43  44  45  46 0
 3-21G
 ****


