%nproc=1
%NoSave
%Mem=1900MB
#P OB98/GEN NMR

erre ene a

0 1
  C      114.685       4.932     -93.588
  O      114.346       5.427     -92.305
  H      114.445       3.867     -93.624
  H      115.755       5.060     -93.766
  H      114.110       5.452     -94.359
  P      114.447       7.019     -92.099
  C      116.868       7.624     -91.280
  O      115.987       7.387     -92.363
  C      118.308       7.751     -91.778
  O      118.334       8.676     -92.894
  C      119.284       8.268     -90.721
  O      120.537       7.599     -90.894
  C      119.432       9.741     -91.059
  O      120.661      10.281     -90.570
  C      119.282       9.720     -92.588
  N      118.842      11.009     -93.120
  C      119.822      11.813     -93.711
  O      120.996      11.436     -93.748
  N      119.463      13.042     -94.207
  C      118.246      13.462     -94.063
  N      117.956      14.695     -94.559
  C      117.191      12.670     -93.398
  C      117.552      11.466     -92.965
  O      114.291       7.149     -90.511
  O      113.453       7.804     -92.890
  H      120.706      11.224     -90.842
  H      114.778       6.472     -90.016
  H      116.193      13.071     -93.289
  H      116.839      10.814     -92.473
  H      120.232       9.456     -93.066
  H      118.613      10.310     -90.608
  H      118.931       8.126     -89.700
  H      118.626       6.779     -92.170
  H      118.711      15.212     -94.990
  H      116.805       6.809     -90.553
  H      117.058      15.144     -94.456
  H      116.555       8.548     -90.784
  P      120.670       6.064     -90.453
  C      120.949       6.328     -87.902
  O      120.103       5.897     -88.959
  O      122.002       5.432     -90.695
  O      119.534       5.342     -91.331
  H      119.884       4.476     -91.620
  H      120.460       6.165     -86.964
  H      121.160       7.371     -88.017
  H      121.864       5.773     -87.929

 6  7  8  9  10  11  12  13  14  15  16  26  30  31  32  33  35 0
 6-311+G(2d,p)
 ****
 37  38 0
 6-311+G(2d,p)
 ****
 1  2  3  4  5  17  18  19  20  21  22  23  24  25 0
 3-21G
 ****
 27  28  29  34  36  39  40  41  42  43  44  45  46 0
 3-21G
 ****


