%nproc=1
%NoSave
%Mem=1900MB
#P OB98/GEN NMR

erre ene a

0 1
  C     -484.539     -53.916     745.431
  O     -484.274     -53.367     746.708
  H     -483.596     -54.125     744.931
  H     -485.109     -53.205     744.830
  H     -485.100     -54.855     745.528
  P     -485.511     -53.204     747.717
  C     -484.460     -51.146     748.915
  O     -484.932     -52.483     749.039
  C     -484.141     -50.576     750.294
  O     -485.375     -50.560     751.077
  C     -483.107     -51.395     751.097
  O     -482.307     -50.471     751.864
  C     -483.964     -52.218     752.044
  O     -483.292     -52.649     753.204
  C     -485.105     -51.222     752.331
  N     -486.295     -51.881     752.858
  C     -486.833     -51.380     754.050
  O     -486.434     -50.390     754.637
  N     -487.895     -52.089     754.555
  C     -488.429     -53.236     754.025
  O     -489.376     -53.837     754.533
  C     -487.815     -53.712     752.774
  C     -486.789     -53.034     752.258
  O     -485.774     -54.707     748.210
  O     -486.732     -52.568     747.143
  H     -486.414     -55.152     747.616
  H     -482.986     -51.854     753.693
  H     -488.288     -51.761     755.418
  H     -488.210     -54.621     752.318
  H     -486.314     -53.355     751.343
  H     -484.757     -50.461     753.043
  H     -484.352     -53.099     751.511
  H     -482.455     -52.018     750.473
  H     -483.818     -49.529     750.190
  H     -485.225     -50.525     748.434
  H     -483.553     -51.133     748.281
  P     -480.737     -50.412     751.518
  C     -479.546     -49.847     753.787
  O     -480.116     -49.379     752.576
  O     -480.770     -49.621     750.127
  O     -480.098     -51.754     751.460
  H     -481.457     -48.935     750.089
  H     -479.188     -49.016     754.357
  H     -478.732     -50.506     753.567
  H     -480.288     -50.373     754.351

 6  7  8  9  10  11  12  13  14  15  16  27  31  32  33  34  35 0
 6-311+G(2d,p)
 ****
 36  37 0
 6-311+G(2d,p)
 ****
 1  2  3  4  5  17  18  19  20  21  22  23  24  25 0
 3-21G
 ****
 26  28  29  30  38  39  40  41  42  43  44  45 0
 3-21G
 ****


