%nproc=1
%NoSave
%Mem=1900MB
#P OB98/GEN NMR

erre ene a

0 1
  C     -365.730    -639.619    -255.033
  O     -366.573    -640.702    -254.643
  P     -368.062    -640.939    -255.166
  C     -370.490    -640.386    -254.299
  O     -369.079    -640.251    -254.139
  C     -371.244    -639.438    -253.349
  O     -370.799    -639.706    -251.980
  C     -370.958    -637.957    -253.640
  O     -372.117    -637.137    -253.561
  C     -369.816    -637.644    -252.679
  O     -369.662    -636.252    -252.433
  C     -370.166    -638.503    -251.470
  N     -366.006    -636.819    -249.026
  C     -366.862    -636.142    -249.875
  N     -366.560    -634.849    -250.129
  N     -367.901    -636.691    -250.452
  C     -368.038    -638.007    -250.176
  C     -367.252    -638.788    -249.358
  C     -366.130    -638.164    -248.691
  O     -365.359    -638.717    -247.917
  N     -367.710    -640.083    -249.314
  C     -368.761    -640.091    -250.122
  N     -369.004    -638.844    -250.664
  O     -368.388    -642.329    -255.602
  O     -368.162    -639.985    -256.464
  H     -370.513    -635.915    -252.077
  H     -368.779    -640.432    -257.083
  H     -365.230    -636.339    -248.596
  H     -369.387    -640.944    -250.328
  H     -370.862    -638.010    -250.796
  H     -368.881    -637.990    -253.150
  H     -365.701    -634.397    -249.820
  H     -370.608    -637.828    -254.673
  H     -367.051    -634.421    -250.919
  H     -372.312    -639.669    -253.405
  H     -370.720    -641.428    -254.052
  H     -370.776    -640.219    -255.333
  P     -372.661    -636.074    -254.636
  C     -373.444    -633.642    -254.676
  O     -372.756    -634.640    -253.952
  O     -374.200    -636.476    -254.853
  O     -371.931    -636.100    -255.945
  H     -374.345    -636.735    -255.793
  H     -373.212    -632.658    -254.236
  H     -374.523    -633.817    -254.590
  H     -373.154    -633.640    -255.725
  H     -364.788    -639.703    -254.533
  H     -366.194    -638.692    -254.767
  H     -365.576    -639.650    -256.091

 3  4  5  6  7  8  9  10  11  12  23  26  30  31 0
 6-311+G(2d,p)
 ****
 33  35  36  37  38 0
 6-311+G(2d,p)
 ****
 1  2  13  14  15  16  17  18  19  20  21  22  24  25 0
 3-21G
 ****
 27  28  29  32  34  39  40  41  42  43  44  45  46  47  48  49 0
 3-21G
 ****


