%nproc=1
%NoSave
%Mem=1900MB
#P OB98/GEN NMR

erre ene a

0 1
  C      359.781    -224.270     430.002
  O      360.071    -223.345     431.049
  P      358.874    -222.440     431.623
  C      358.349    -223.770     433.772
  O      357.891    -223.379     432.479
  C      357.276    -223.462     434.837
  O      356.086    -224.240     434.548
  C      357.669    -223.826     436.273
  O      358.352    -222.843     437.057
  C      356.306    -224.023     436.920
  O      355.766    -222.747     437.320
  C      355.453    -224.606     435.793
  N      352.107    -228.470     436.141
  C      351.942    -227.129     436.069
  N      352.883    -226.170     435.976
  C      354.113    -226.708     435.955
  C      354.440    -228.056     436.014
  C      353.372    -228.963     436.117
  N      353.545    -230.323     436.203
  N      355.809    -228.229     435.970
  C      356.297    -227.004     435.898
  N      355.312    -226.053     435.872
  O      358.206    -221.540     430.636
  O      359.607    -221.585     432.766
  H      355.850    -222.154     436.548
  H      359.234    -220.681     432.773
  H      350.910    -226.782     436.087
  H      357.355    -226.761     435.874
  H      354.439    -224.187     435.778
  H      356.350    -224.639     437.822
  H      358.231    -224.767     436.294
  H      357.013    -222.396     434.780
  H      359.268    -223.237     434.012
  H      352.724    -230.901     436.318
  H      354.480    -230.705     436.244
  H      358.593    -224.834     433.727
  P      359.460    -223.259     438.138
  C      361.438    -223.617     436.464
  O      360.505    -224.189     437.355
  O      358.922    -223.857     439.396
  O      360.270    -221.900     438.346
  H      360.797    -221.621     437.573
  H      362.187    -224.374     436.204
  H      361.944    -222.764     436.923
  H      360.933    -223.296     435.550
  H      360.674    -224.793     429.731
  H      359.406    -223.740     429.151
  H      359.045    -224.970     430.338

 3  4  5  6  7  8  9  10  11  12  22  25  29  30  31  32 0
 6-311+G(2d,p)
 ****
 33  36  37 0
 6-311+G(2d,p)
 ****
 1  2  13  14  15  16  17  18  19  20  21  23  24  26 0
 3-21G
 ****
 27  28  34  35  38  39  40  41  42  43  44  45  46  47  48 0
 3-21G
 ****


