%nproc=1
%NoSave
%Mem=1900MB
#P OB98/GEN NMR

erre ene a

0 1
  C     -793.669    1410.958     518.026
  O     -793.492    1410.099     516.891
  P     -794.535    1408.908     516.648
  C     -793.354    1406.811     517.620
  O     -793.717    1407.544     516.446
  C     -793.208    1405.324     517.302
  O     -794.481    1404.765     516.866
  C     -792.255    1405.043     516.136
  O     -790.883    1405.288     516.395
  C     -792.644    1403.657     515.720
  O     -792.048    1402.659     516.530
  C     -794.181    1403.675     515.950
  N     -794.951    1403.806     514.700
  C     -794.981    1402.693     513.890
  O     -794.408    1401.635     514.152
  N     -795.712    1402.832     512.730
  C     -796.342    1403.955     512.301
  O     -796.950    1404.034     511.248
  C     -796.238    1405.116     513.202
  C     -795.551    1405.010     514.337
  O     -795.604    1409.167     515.628
  O     -795.200    1408.703     518.089
  H     -792.519    1401.816     516.364
  H     -796.150    1408.553     517.969
  H     -795.769    1402.017     512.126
  H     -796.730    1406.033     512.883
  H     -795.467    1405.850     515.014
  H     -794.509    1402.749     516.441
  H     -792.351    1403.452     514.684
  H     -792.529    1405.733     515.316
  H     -792.912    1404.791     518.209
  H     -794.123    1406.961     518.405
  H     -792.426    1407.226     518.028
  P     -790.163    1406.691     516.077
  C     -789.238    1405.744     513.841
  O     -788.963    1406.416     515.060
  O     -789.880    1407.597     517.232
  O     -791.253    1407.396     515.117
  H     -791.209    1408.360     515.274
  H     -788.317    1405.624     513.273
  H     -789.953    1406.340     513.230
  H     -789.656    1404.748     514.048
  H     -792.893    1411.694     518.041
  H     -793.626    1410.377     518.923
  H     -794.620    1411.444     517.961

 3  4  5  6  7  8  9  10  11  12  13  23  28  29  30  31  32 0
 6-311+G(2d,p)
 ****
 33  34 0
 6-311+G(2d,p)
 ****
 1  2  14  15  16  17  18  19  20  21  22  24  25  26  27 0
 3-21G
 ****
 35  36  37  38  39  40  41  42  43  44  45 0
 3-21G
 ****


