%nproc=1
%NoSave
%Mem=1900MB
#P OB98/GEN NMR

erre ene a

0 1
  C     -185.572     587.109    -353.987
  O     -186.869     587.196    -353.428
  H     -184.835     587.282    -353.196
  H     -185.424     587.867    -354.765
  H     -185.410     586.114    -354.410
  P     -188.125     587.135    -354.421
  C     -189.147     584.796    -354.002
  O     -188.292     585.592    -354.814
  C     -190.122     584.013    -354.871
  O     -191.068     584.911    -355.494
  C     -189.442     583.277    -356.024
  O     -188.791     582.113    -355.547
  C     -190.617     583.037    -356.946
  O     -191.409     581.921    -356.520
  C     -191.407     584.363    -356.793
  N     -191.120     585.319    -357.859
  C     -191.930     585.232    -358.989
  O     -192.836     584.401    -359.052
  N     -191.695     586.091    -360.037
  C     -190.737     586.957    -359.954
  N     -190.538     587.779    -361.021
  C     -189.859     587.090    -358.769
  C     -190.106     586.239    -357.769
  O     -188.111     588.077    -355.589
  O     -189.376     587.402    -353.455
  H     -192.002     581.715    -357.270
  H     -189.568     588.356    -353.396
  H     -189.076     587.831    -358.744
  H     -189.509     586.273    -356.868
  H     -192.490     584.167    -356.784
  H     -190.293     582.846    -357.967
  H     -188.735     583.939    -356.526
  H     -190.685     583.324    -354.236
  H     -191.161     587.650    -361.817
  H     -189.696     585.481    -353.345
  H     -189.888     588.549    -361.035
  H     -188.566     584.108    -353.376
  P     -187.523     581.519    -356.328
  C     -186.100     583.139    -354.911
  O     -186.386     582.643    -356.217
  O     -187.799     581.014    -357.705
  O     -186.988     580.378    -355.328
  H     -187.575     579.581    -355.354
  H     -185.329     583.879    -354.971
  H     -185.773     582.333    -354.287
  H     -186.983     583.577    -354.495

 6  7  8  9  10  11  12  13  14  15  16  26  30  31  32  33  35 0
 6-311+G(2d,p)
 ****
 37  38 0
 6-311+G(2d,p)
 ****
 1  2  3  4  5  17  18  19  20  21  22  23  24  25 0
 3-21G
 ****
 27  28  29  34  36  39  40  41  42  43  44  45  46 0
 3-21G
 ****


