%nproc=1
%NoSave
%Mem=1900MB
#P OB98/GEN NMR

erre ene a

0 1
  C      213.605    -375.803    1014.995
  O      212.655    -376.835    1015.268
  P      212.053    -376.934    1016.763
  C      209.627    -376.686    1015.937
  O      210.646    -376.160    1016.781
  C      208.307    -376.855    1016.735
  O      208.471    -377.791    1017.819
  C      207.824    -375.582    1017.374
  O      207.260    -374.703    1016.401
  C      206.847    -376.109    1018.416
  O      205.568    -376.405    1017.813
  C      207.527    -377.429    1018.852
  N      208.180    -377.330    1020.148
  C      207.385    -377.675    1021.254
  O      206.215    -377.992    1021.101
  N      207.958    -377.634    1022.515
  C      209.198    -377.278    1022.643
  N      209.701    -377.245    1023.904
  C      210.059    -376.888    1021.509
  C      209.478    -376.947    1020.302
  O      212.996    -376.592    1017.868
  O      211.590    -378.480    1016.840
  H      205.058    -376.903    1018.476
  H      211.660    -378.765    1017.778
  H      211.087    -376.612    1021.659
  H      210.048    -376.679    1019.412
  H      206.791    -378.237    1018.900
  H      206.669    -375.392    1019.219
  H      208.654    -375.070    1017.885
  H      207.555    -377.248    1016.051
  H      209.090    -377.509    1024.659
  H      209.938    -377.636    1015.530
  H      210.679    -377.042    1024.110
  H      209.475    -376.001    1015.105
  P      207.392    -373.117    1016.668
  C      208.916    -372.628    1014.623
  O      208.770    -372.631    1016.041
  O      207.637    -373.040    1018.256
  O      206.193    -372.325    1016.268
  H      207.224    -372.229    1018.607
  H      209.776    -371.984    1014.371
  H      208.023    -372.241    1014.137
  H      209.111    -373.645    1014.269
  H      213.912    -375.862    1013.972
  H      214.457    -375.925    1015.630
  H      213.157    -374.849    1015.178

 3  4  5  6  7  8  9  10  11  12  13  23  27  28  29  30  32 0
 6-311+G(2d,p)
 ****
 34  35 0
 6-311+G(2d,p)
 ****
 1  2  14  15  16  17  18  19  20  21  22  24  25  26 0
 3-21G
 ****
 31  33  36  37  38  39  40  41  42  43  44  45  46 0
 3-21G
 ****


