%nproc=1
%NoSave
%Mem=1900MB
#P OB98/GEN NMR

erre ene a

0 1
  C      -25.625    -370.997     -50.540
  O      -25.684    -371.990     -49.532
  H      -26.427    -370.271     -50.386
  H      -24.662    -370.481     -50.468
  H      -25.712    -371.449     -51.531
  P      -26.867    -373.070     -49.629
  C      -27.472    -373.819     -47.218
  O      -26.681    -374.057     -48.375
  C      -27.116    -374.816     -46.111
  O      -27.428    -376.159     -46.578
  C      -25.634    -374.794     -45.697
  O      -25.554    -374.977     -44.287
  C      -25.065    -376.031     -46.384
  O      -23.911    -376.543     -45.732
  C      -26.266    -376.971     -46.346
  N      -24.113    -381.477     -47.320
  C      -24.302    -380.799     -46.166
  N      -24.934    -379.621     -45.991
  C      -25.460    -379.183     -47.146
  C      -25.351    -379.768     -48.399
  C      -24.621    -380.966     -48.461
  N      -24.362    -381.630     -49.646
  N      -25.973    -378.975     -49.355
  C      -26.429    -377.934     -48.690
  N      -26.137    -378.008     -47.357
  O      -26.409    -373.963     -50.882
  O      -28.235    -372.502     -49.813
  H      -24.143    -376.773     -44.813
  H      -26.750    -373.565     -51.707
  H      -23.877    -381.257     -45.269
  H      -26.937    -377.086     -49.130
  H      -26.386    -377.470     -45.377
  H      -24.797    -375.778     -47.422
  H      -25.103    -373.879     -45.990
  H      -27.760    -374.619     -45.249
  H      -28.532    -373.939     -47.476
  H      -23.735    -382.420     -49.606
  H      -24.646    -381.207     -50.516
  H      -27.310    -372.791     -46.874
  P      -25.115    -373.712     -43.400
  C      -24.007    -374.916     -41.371
  O      -25.103    -374.147     -41.857
  O      -26.384    -372.735     -43.500
  O      -23.865    -373.039     -43.880
  H      -26.099    -371.802     -43.476
  H      -24.149    -375.122     -40.331
  H      -23.099    -374.366     -41.505
  H      -23.950    -375.837     -41.913

 6  7  8  9  10  11  12  13  14  15  25  28  32  33  34  35 0
 6-311+G(2d,p)
 ****
 36  39  40 0
 6-311+G(2d,p)
 ****
 1  2  3  4  5  16  17  18  19  20  21  22  23  24 0
 3-21G
 ****
 26  27  29  30  31  37  38  41  42  43  44  45  46  47 0
 3-21G
 ****
 48 0
 3-21G
 ****


