%nproc=1
%NoSave
%Mem=1900MB
#P OB98/GEN NMR

erre ene a

0 1
  C      602.203     512.225     388.718
  O      602.026     511.673     387.427
  H      602.752     513.163     388.619
  H      602.787     511.542     389.341
  H      601.239     512.428     389.188
  P      601.154     510.330     387.274
  C      602.394     509.556     385.159
  O      601.152     509.963     385.710
  C      602.439     509.850     383.664
  O      601.151     509.525     383.081
  C      602.739     511.317     383.329
  O      603.575     511.357     382.170
  C      601.382     511.897     383.005
  O      601.465     513.015     382.123
  C      600.670     510.694     382.388
  N      596.590     513.165     380.724
  C      597.907     513.249     380.324
  N      598.190     514.148     379.348
  N      598.866     512.525     380.831
  C      598.440     511.665     381.784
  C      597.162     511.485     382.264
  C      596.112     512.302     381.709
  O      594.929     512.280     382.030
  N      597.136     510.531     383.259
  C      598.392     510.136     383.367
  N      599.226     510.798     382.508
  O      599.799     510.368     387.904
  O      602.080     509.197     387.919
  H      601.818     512.689     381.271
  H      601.787     508.991     388.826
  H      595.889     513.756     380.302
  H      598.750     509.382     384.064
  H      600.883     510.571     381.316
  H      600.882     512.224     383.925
  H      597.500     514.727     378.899
  H      603.231     511.852     384.154
  H      599.153     514.208     379.026
  H      603.176     509.184     383.194
  H      602.508     508.477     385.324
  H      603.212     510.084     385.669
  P      605.101     511.826     382.327
  C      605.407     512.392     379.827
  O      605.845     511.588     380.920
  O      605.819     511.300     383.527
  O      604.975     513.429     382.383
  H      605.706     513.777     382.926
  H      605.972     512.144     378.953
  H      605.552     513.425     380.064
  H      604.369     512.210     379.644

 6  7  8  9  10  11  12  13  14  15  26  29  33  34 0
 6-311+G(2d,p)
 ****
 36  38  39  40  41 0
 6-311+G(2d,p)
 ****
 1  2  3  4  5  16  17  18  19  20  21  22  23  24  25 0
 3-21G
 ****
 27  28  30  31  32  35  37  42  43  44  45  46  47 0
 3-21G
 ****
 48  49 0
 3-21G
 ****


