%nproc=1
%NoSave
%Mem=1900MB
#P OB98/GEN NMR

erre ene a

0 1
  C       23.227      -2.392     -88.137
  O       22.710      -1.087     -87.971
  P       23.393      -0.048     -86.965
  C       21.922      -0.735     -84.982
  O       23.250      -0.628     -85.477
  C       21.896      -1.366     -83.591
  O       22.635      -2.616     -83.615
  C       22.501      -0.483     -82.490
  O       21.707      -0.670     -81.313
  C       23.885      -1.074     -82.300
  O       24.437      -0.763     -81.028
  C       23.597      -2.560     -82.544
  N       24.798      -3.313     -82.867
  C       25.393      -4.033     -81.829
  O       24.980      -3.908     -80.675
  N       26.447      -4.860     -82.124
  C       26.977      -4.822     -83.309
  N       27.975      -5.705     -83.580
  C       26.527      -3.884     -84.358
  C       25.419      -3.200     -84.090
  O       22.951       1.370     -87.122
  O       24.962      -0.191     -87.256
  H       25.335       0.693     -87.442
  H       25.230      -1.321     -80.883
  H       27.077      -3.799     -85.283
  H       24.993      -2.507     -84.806
  H       23.124      -3.010     -81.660
  H       24.561      -0.684     -83.069
  H       22.511       0.578     -82.756
  H       20.854      -1.609     -83.346
  H       28.228      -6.359     -82.850
  H       21.353      -1.365     -85.669
  H       28.221      -5.966     -84.534
  H       21.450       0.253     -84.967
  P       21.410       0.607     -80.385
  C       23.130      -0.294     -78.663
  O       22.665       0.811     -79.411
  O       20.299       0.023     -79.380
  O       20.879       1.823     -81.072
  H       19.758       0.759     -79.042
  H       23.941       0.043     -78.011
  H       23.519      -1.067     -79.331
  H       22.329      -0.705     -78.044
  H       22.631      -2.924     -88.849
  H       23.206      -2.906     -87.199
  H       24.236      -2.334     -88.489

 3  4  5  6  7  8  9  10  11  12  13  24  27  28  29  30  32 0
 6-311+G(2d,p)
 ****
 34  35 0
 6-311+G(2d,p)
 ****
 1  2  14  15  16  17  18  19  20  21  22  23  25  26 0
 3-21G
 ****
 31  33  36  37  38  39  40  41  42  43  44  45  46 0
 3-21G
 ****


