%nproc=1
%NoSave
%Mem=1900MB
#P OB98/GEN NMR

erre ene a

0 1
  C     -389.766     254.057    -480.258
  O     -388.474     253.637    -479.878
  H     -390.233     254.562    -479.407
  H     -390.374     253.190    -480.527
  H     -389.726     254.755    -481.098
  P     -387.451     253.162    -481.015
  C     -386.681     250.747    -480.520
  O     -387.629     251.575    -481.178
  C     -386.972     249.267    -480.787
  O     -388.173     248.885    -480.063
  C     -387.248     249.006    -482.276
  O     -386.900     247.681    -482.659
  C     -388.757     249.172    -482.368
  O     -389.324     248.498    -483.494
  C     -389.206     248.608    -481.019
  N     -394.206     247.855    -480.347
  C     -393.292     247.088    -481.041
  N     -393.776     245.967    -481.634
  N     -392.029     247.399    -481.168
  C     -391.702     248.579    -480.585
  C     -392.517     249.437    -479.889
  C     -393.910     249.065    -479.728
  O     -394.764     249.718    -479.144
  N     -391.830     250.540    -479.455
  C     -390.602     250.357    -479.888
  N     -390.464     249.161    -480.560
  O     -386.020     253.277    -480.306
  O     -387.496     253.945    -482.294
  H     -388.930     248.888    -484.295
  H     -385.316     253.353    -480.976
  H     -395.161     247.555    -480.256
  H     -389.775     251.037    -479.735
  H     -389.328     247.519    -481.079
  H     -388.979     250.234    -482.483
  H     -394.765     245.801    -481.724
  H     -386.736     249.712    -482.926
  H     -393.210     245.574    -482.392
  H     -386.156     248.649    -480.398
  H     -386.752     250.968    -479.449
  H     -385.668     251.005    -480.836
  P     -385.447     247.421    -483.286
  C     -386.026     247.798    -485.844
  O     -385.317     248.180    -484.686
  O     -385.480     245.874    -483.689
  O     -384.316     247.737    -482.359
  H     -384.830     245.369    -483.162
  H     -385.773     248.455    -486.650
  H     -387.077     247.855    -485.654
  H     -385.765     246.794    -486.107

 6  7  8  9  10  11  12  13  14  15  26  29  33  34 0
 6-311+G(2d,p)
 ****
 36  38  39  40  41 0
 6-311+G(2d,p)
 ****
 1  2  3  4  5  16  17  18  19  20  21  22  23  24  25 0
 3-21G
 ****
 27  28  30  31  32  35  37  42  43  44  45  46  47 0
 3-21G
 ****
 48  49 0
 3-21G
 ****


