%nproc=1
%NoSave
%Mem=1900MB
#P OB98/GEN NMR

erre ene a

0 1
  C      534.948    -395.933    -390.095
  O      533.843    -395.168    -389.617
  P      533.591    -393.696    -390.208
  C      531.303    -394.029    -391.373
  O      532.705    -393.800    -391.536
  C      530.566    -393.683    -392.672
  O      530.691    -392.275    -392.994
  C      531.117    -394.404    -393.891
  O      530.890    -395.813    -393.949
  C      530.589    -393.574    -395.036
  O      529.247    -393.927    -395.372
  C      530.637    -392.147    -394.426
  N      531.770    -391.357    -394.930
  C      531.492    -390.517    -396.004
  O      530.393    -390.448    -396.550
  N      532.551    -389.778    -396.461
  C      533.838    -389.824    -395.984
  O      534.748    -389.147    -396.451
  C      534.071    -390.749    -394.872
  C      533.047    -391.463    -394.397
  O      534.803    -392.834    -390.312
  O      532.555    -393.073    -389.150
  H      529.275    -394.763    -395.869
  H      532.817    -392.140    -388.994
  H      532.375    -389.151    -397.238
  H      535.069    -390.807    -394.469
  H      533.194    -392.146    -393.580
  H      529.717    -391.602    -394.665
  H      531.193    -393.703    -395.941
  H      532.212    -394.285    -393.880
  H      529.497    -393.887    -392.526
  H      530.925    -393.426    -390.545
  H      531.150    -395.081    -391.094
  P      532.038    -396.867    -394.357
  C      531.255    -398.927    -392.986
  O      532.211    -397.906    -393.149
  O      533.280    -396.330    -394.986
  O      531.253    -397.761    -395.454
  H      531.909    -398.059    -396.110
  H      531.520    -399.534    -392.110
  H      531.227    -399.578    -393.858
  H      530.270    -398.486    -392.810
  H      534.967    -396.881    -389.599
  H      535.859    -395.408    -389.895
  H      534.848    -396.084    -391.149

 3  4  5  6  7  8  9  10  11  12  13  23  28  29  30  31  32 0
 6-311+G(2d,p)
 ****
 33  34 0
 6-311+G(2d,p)
 ****
 1  2  14  15  16  17  18  19  20  21  22  24  25  26  27 0
 3-21G
 ****
 35  36  37  38  39  40  41  42  43  44  45 0
 3-21G
 ****


