%nproc=1
%NoSave
%Mem=1900MB
#P OB98/GEN NMR

erre ene a

0 1
  C      348.401    -429.585    -216.170
  O      349.777    -429.763    -216.528
  P      350.123    -430.228    -218.028
  C      352.196    -430.322    -219.559
  O      351.708    -430.081    -218.240
  C      353.587    -429.704    -219.751
  O      353.542    -428.266    -219.726
  C      354.573    -430.109    -218.651
  O      355.002    -431.453    -218.814
  C      355.654    -429.042    -218.819
  O      356.560    -429.405    -219.880
  C      354.827    -427.805    -219.239
  N      354.673    -426.833    -218.164
  C      355.809    -426.083    -217.840
  O      356.863    -426.282    -218.426
  N      355.712    -425.125    -216.854
  C      354.580    -424.957    -216.249
  N      354.545    -423.988    -215.272
  C      353.357    -425.729    -216.534
  C      353.477    -426.651    -217.492
  O      349.280    -429.631    -219.096
  O      349.938    -431.815    -217.958
  H      356.899    -430.297    -219.651
  H      349.653    -432.138    -218.849
  H      352.439    -425.546    -215.997
  H      352.629    -427.285    -217.772
  H      355.307    -427.301    -220.083
  H      356.245    -428.915    -217.916
  H      354.086    -429.987    -217.669
  H      353.963    -430.041    -220.729
  H      355.395    -423.481    -215.078
  H      351.502    -429.893    -220.288
  H      353.706    -423.747    -214.779
  H      352.214    -431.405    -219.735
  P      355.114    -432.359    -217.503
  C      354.278    -434.776    -217.046
  O      354.900    -433.881    -217.950
  O      353.760    -432.011    -216.715
  O      356.311    -432.099    -216.646
  H      353.917    -432.052    -215.749
  H      353.938    -435.642    -217.589
  H      353.416    -434.299    -216.550
  H      354.990    -435.100    -216.277
  H      348.335    -429.277    -215.147
  H      347.877    -430.509    -216.298
  H      347.963    -428.836    -216.797

 3  4  5  6  7  8  9  10  11  12  13  23  27  28  29  30  32 0
 6-311+G(2d,p)
 ****
 34  35 0
 6-311+G(2d,p)
 ****
 1  2  14  15  16  17  18  19  20  21  22  24  25  26 0
 3-21G
 ****
 31  33  36  37  38  39  40  41  42  43  44  45  46 0
 3-21G
 ****


