%nproc=1
%NoSave
%Mem=1900MB
#P OB98/GEN NMR

erre ene a

0 1
  C      102.883    -143.677    -104.594
  O      101.972    -144.561    -105.223
  P      102.482    -145.920    -105.897
  C      102.651    -147.309    -103.746
  O      103.377    -146.695    -104.804
  C      102.778    -148.831    -103.792
  O      104.174    -149.202    -103.620
  C      101.971    -149.575    -102.713
  O      101.536    -150.810    -103.296
  C      103.022    -149.862    -101.647
  O      102.658    -150.926    -100.778
  C      104.233    -150.147    -102.534
  N      107.582    -152.444     -99.406
  C      106.383    -152.845     -99.892
  N      105.540    -152.161    -100.701
  C      106.042    -150.953    -101.002
  C      107.233    -150.395    -100.557
  C      108.033    -151.207     -99.730
  N      109.272    -150.829     -99.255
  N      107.371    -149.102    -101.037
  C      106.286    -148.892    -101.757
  N      105.489    -149.998    -101.818
  O      103.130    -145.762    -107.235
  O      101.162    -146.823    -105.994
  H      101.910    -150.629    -100.225
  H      100.854    -146.862    -106.921
  H      106.064    -153.844     -99.607
  H      106.028    -147.960    -102.251
  H      104.203    -151.159    -102.956
  H      103.178    -148.962    -101.038
  H      101.120    -149.010    -102.324
  H      102.475    -149.167    -104.792
  H      101.598    -147.028    -103.854
  H      109.819    -151.539     -98.783
  H      109.747    -150.036     -99.685
  H      103.014    -146.930    -102.780
  P      100.403    -151.685    -102.565
  C       98.401    -150.646    -103.784
  O       99.080    -150.788    -102.543
  O      100.803    -152.278    -101.254
  O      100.055    -152.821    -103.652
  H       99.595    -153.561    -103.208
  H       98.901    -149.875    -104.385
  H       97.369    -150.337    -103.594
  H       98.393    -151.589    -104.336
  H      102.352    -142.832    -104.208
  H      103.609    -143.346    -105.307
  H      103.377    -144.185    -103.792

 3  4  5  6  7  8  9  10  11  12  22  25  29  30  31  32 0
 6-311+G(2d,p)
 ****
 33  36  37 0
 6-311+G(2d,p)
 ****
 1  2  13  14  15  16  17  18  19  20  21  23  24  26 0
 3-21G
 ****
 27  28  34  35  38  39  40  41  42  43  44  45  46  47  48 0
 3-21G
 ****


