%nproc=1
%NoSave
%Mem=1900MB
#P OB98/GEN NMR

erre ene a

0 1
  C       34.647      41.781    -161.882
  O       33.642      41.371    -162.783
  P       32.282      40.700    -162.267
  C       31.670      38.224    -161.891
  O       32.664      39.231    -161.734
  C       31.554      37.385    -160.613
  O       31.117      38.255    -159.523
  C       30.530      36.238    -160.741
  O       31.039      34.950    -160.386
  C       29.362      36.733    -159.901
  O       28.493      35.708    -159.464
  C       30.083      37.543    -158.815
  N       29.182      38.437    -158.093
  C       28.220      37.847    -157.277
  O       28.091      36.635    -157.119
  N       27.341      38.702    -156.671
  C       27.254      40.045    -156.884
  O       26.377      40.737    -156.385
  C       28.271      40.608    -157.790
  C       29.188      39.799    -158.326
  O       31.149      40.726    -163.235
  O       31.989      41.483    -160.899
  H       27.674      36.128    -159.135
  H       32.688      41.406    -160.225
  H       26.639      38.287    -156.077
  H       28.219      41.670    -157.985
  H       29.950      40.185    -158.995
  H       30.575      36.889    -158.092
  H       28.767      37.412    -160.525
  H       30.204      36.116    -161.781
  H       32.550      37.003    -160.375
  H       31.955      37.574    -162.722
  H       30.711      38.688    -162.152
  P       30.391      33.553    -160.824
  C       28.084      32.396    -160.502
  O       28.986      33.397    -160.076
  O       31.297      32.372    -160.718
  O       29.966      33.801    -162.349
  H       29.995      32.958    -162.836
  H       27.065      32.727    -160.282
  H       28.280      31.475    -159.945
  H       28.173      32.203    -161.574
  H       35.466      42.201    -162.428
  H       34.988      40.937    -161.320
  H       34.249      42.516    -161.214

 3  4  5  6  7  8  9  10  11  12  13  23  28  29  30  31  32 0
 6-311+G(2d,p)
 ****
 33  34 0
 6-311+G(2d,p)
 ****
 1  2  14  15  16  17  18  19  20  21  22  24  25  26  27 0
 3-21G
 ****
 35  36  37  38  39  40  41  42  43  44  45 0
 3-21G
 ****


