%nproc=1
%NoSave
%Mem=1900MB
#P OB98/GEN NMR

erre ene a

0 1
  C     -196.864    -384.962     615.435
  O     -197.704    -384.284     614.491
  P     -198.579    -383.047     615.012
  C     -197.880    -381.494     613.044
  O     -197.935    -381.690     614.449
  C     -196.475    -381.065     612.615
  O     -195.493    -382.081     612.900
  C     -196.345    -380.788     611.126
  O     -196.805    -379.483     610.796
  C     -194.841    -380.879     610.938
  O     -194.219    -379.650     611.363
  C     -194.463    -382.022     611.889
  N     -191.302    -385.363     609.633
  C     -191.095    -384.131     610.151
  N     -191.989    -383.294     610.718
  C     -193.210    -383.850     610.737
  C     -193.576    -385.094     610.250
  C     -192.557    -385.870     609.674
  N     -192.777    -387.123     609.153
  N     -194.924    -385.316     610.435
  C     -195.361    -384.232     611.042
  N     -194.365    -383.313     611.238
  O     -198.233    -382.995     616.576
  O     -200.045    -383.201     614.781
  H     -193.255    -379.765     611.251
  H     -199.018    -382.706     617.078
  H     -190.071    -383.767     610.105
  H     -196.383    -384.069     611.359
  H     -193.508    -381.840     612.399
  H     -194.556    -381.034     609.892
  H     -196.849    -381.565     610.537
  H     -196.209    -380.161     613.183
  H     -198.613    -380.740     612.740
  H     -191.992    -387.634     608.781
  H     -193.705    -387.516     609.197
  H     -198.173    -382.423     612.546
  P     -198.156    -379.377     609.941
  C     -199.131    -378.116     611.993
  O     -199.324    -379.110     611.005
  O     -198.401    -380.885     609.466
  O     -198.086    -378.430     608.788
  H     -198.864    -380.896     608.604
  H     -200.101    -377.857     612.422
  H     -198.684    -377.214     611.563
  H     -198.485    -378.504     612.785
  H     -196.346    -385.759     614.944
  H     -197.465    -385.361     616.225
  H     -196.154    -384.272     615.841

 3  4  5  6  7  8  9  10  11  12  22  25  29  30  31  32 0
 6-311+G(2d,p)
 ****
 33  36  37 0
 6-311+G(2d,p)
 ****
 1  2  13  14  15  16  17  18  19  20  21  23  24  26 0
 3-21G
 ****
 27  28  34  35  38  39  40  41  42  43  44  45  46  47  48 0
 3-21G
 ****


