%nproc=1
%NoSave
%Mem=1900MB
#P OB98/GEN NMR

erre ene a

0 1
  C     -175.435     371.500     -33.987
  O     -174.738     372.073     -35.085
  P     -173.170     371.797     -35.323
  C     -174.031     370.051     -37.041
  O     -173.098     370.339     -36.014
  C     -173.328     369.981     -38.402
  O     -172.335     368.924     -38.350
  C     -174.263     369.681     -39.588
  O     -173.759     370.399     -40.717
  C     -174.094     368.186     -39.782
  O     -174.451     367.760     -41.087
  C     -172.605     368.017     -39.438
  N     -172.263     366.639     -39.070
  C     -171.643     365.848     -40.039
  O     -171.407     366.291     -41.171
  N     -171.285     364.560     -39.714
  C     -171.610     364.075     -38.551
  N     -171.182     362.820     -38.252
  C     -172.369     364.839     -37.544
  C     -172.640     366.107     -37.858
  O     -172.315     371.958     -34.118
  O     -172.783     372.754     -36.544
  H     -173.849     368.200     -41.729
  H     -172.554     373.675     -36.249
  H     -172.644     364.386     -36.593
  H     -173.172     366.752     -37.171
  H     -171.981     368.341     -40.284
  H     -174.726     367.651     -39.060
  H     -175.293     369.989     -39.395
  H     -172.795     370.927     -38.560
  H     -170.528     362.392     -38.891
  H     -174.778     370.858     -37.068
  H     -171.114     362.512     -37.289
  H     -174.550     369.111     -36.817
  P     -174.811     371.031     -41.754
  C     -174.977     373.286     -40.478
  O     -175.652     372.152     -40.975
  O     -175.883     369.838     -41.891
  O     -174.279     371.394     -43.104
  H     -176.330     369.911     -42.758
  H     -175.709     373.940     -39.992
  H     -174.496     373.841     -41.286
  H     -174.231     372.991     -39.733
  H     -176.459     371.809     -34.014
  H     -174.988     371.827     -33.071
  H     -175.382     370.433     -34.049

 3  4  5  6  7  8  9  10  11  12  13  23  27  28  29  30  32 0
 6-311+G(2d,p)
 ****
 34  35 0
 6-311+G(2d,p)
 ****
 1  2  14  15  16  17  18  19  20  21  22  24  25  26 0
 3-21G
 ****
 31  33  36  37  38  39  40  41  42  43  44  45  46 0
 3-21G
 ****


