%nproc=1
%NoSave
%Mem=1900MB
#P OB98/GEN NMR

erre ene a

0 1
  C      149.399    -341.638    -474.145
  O      148.387    -342.096    -473.263
  P      148.687    -342.312    -471.701
  C      146.139    -342.744    -471.698
  O      147.400    -343.081    -471.133
  C      145.146    -343.878    -471.462
  O      145.221    -344.311    -470.088
  C      143.690    -343.503    -471.700
  O      143.396    -343.445    -473.089
  C      142.977    -344.603    -470.924
  O      142.937    -345.815    -471.695
  C      143.909    -344.788    -469.707
  N      143.424    -344.102    -468.515
  C      142.378    -344.718    -467.822
  O      141.906    -345.786    -468.206
  N      141.906    -344.122    -466.679
  C      142.415    -343.000    -466.274
  N      141.954    -342.492    -465.097
  C      143.481    -342.289    -467.003
  C      143.937    -342.892    -468.098
  O      149.051    -341.075    -470.953
  O      149.809    -343.445    -471.661
  H      142.597    -346.513    -471.103
  H      150.732    -343.091    -471.710
  H      143.867    -341.349    -466.635
  H      144.733    -342.447    -468.680
  H      144.025    -345.852    -469.479
  H      141.948    -344.348    -470.650
  H      143.466    -342.530    -471.247
  H      145.432    -344.724    -472.103
  H      141.356    -343.095    -464.547
  H      146.267    -342.598    -472.775
  H      142.483    -341.801    -464.581
  H      145.782    -341.810    -471.253
  P      142.208    -342.478    -473.555
  C      143.554    -342.083    -475.734
  O      142.304    -342.405    -475.157
  O      142.690    -341.035    -473.060
  O      140.866    -342.841    -473.010
  H      142.230    -340.786    -472.237
  H      143.512    -342.304    -476.803
  H      144.357    -342.674    -475.282
  H      143.761    -341.016    -475.605
  H      149.001    -341.560    -475.135
  H      150.215    -342.330    -474.142
  H      149.745    -340.678    -473.823

 3  4  5  6  7  8  9  10  11  12  13  23  27  28  29  30  32 0
 6-311+G(2d,p)
 ****
 34  35 0
 6-311+G(2d,p)
 ****
 1  2  14  15  16  17  18  19  20  21  22  24  25  26 0
 3-21G
 ****
 31  33  36  37  38  39  40  41  42  43  44  45  46 0
 3-21G
 ****


