%nproc=1
%NoSave
%Mem=1900MB
#P OB98/GEN NMR

erre ene a

0 1
  C        7.328       9.650      13.737
  O        6.566       9.134      14.812
  H        7.353      10.740      13.817
  H        6.866       9.377      12.785
  H        8.350       9.268      13.783
  P        6.428       7.537      14.888
  C        4.112       7.303      13.755
  O        5.520       7.160      13.621
  C        3.395       6.078      13.194
  O        3.512       6.035      11.761
  C        3.941       4.747      13.695
  O        3.426       4.441      14.980
  C        3.403       3.802      12.632
  O        2.018       3.505      12.901
  C        3.517       4.642      11.347
  N        6.208       1.144       8.728
  C        5.144       1.026       9.551
  N        4.508       1.992      10.246
  C        5.076       3.189      10.028
  C        6.164       3.464       9.214
  C        6.734       2.375       8.535
  N        7.814       2.501       7.687
  N        6.466       4.809       9.239
  C        5.543       5.344      10.011
  N        4.700       4.401      10.542
  O        5.994       6.988      16.202
  O        7.887       7.083      14.409
  H        1.647       3.089      12.101
  H        8.208       7.660      13.694
  H        4.750       0.021       9.666
  H        5.431       6.404      10.204
  H        2.656       4.493      10.687
  H        3.934       2.849      12.615
  H        5.035       4.728      13.670
  H        2.328       6.178      13.430
  H        3.770       8.205      13.237
  H        8.264       1.654       7.378
  H        8.280       3.396       7.642
  H        3.894       7.413      14.822
  P        4.390       3.889      16.136
  C        4.202       1.556      15.074
  O        5.084       2.563      15.558
  O        3.745       3.721      17.468
  O        5.595       4.936      16.187
  H        5.879       5.083      17.110
  H        4.772       0.724      14.716
  H        3.611       1.953      14.276
  H        3.560       1.233      15.867

 6  7  8  9  10  11  12  13  14  15  25  28  32  33  34  35 0
 6-311+G(2d,p)
 ****
 36  39  40 0
 6-311+G(2d,p)
 ****
 1  2  3  4  5  16  17  18  19  20  21  22  23  24 0
 3-21G
 ****
 26  27  29  30  31  37  38  41  42  43  44  45  46  47 0
 3-21G
 ****
 48 0
 3-21G
 ****


