%nproc=1
%NoSave
%Mem=1900MB
#P OB98/GEN NMR

erre ene a

0 1
  C      -13.427    -193.453     161.087
  O      -13.640    -194.857     161.265
  P      -13.565    -195.436     162.763
  C      -11.711    -196.728     164.100
  O      -12.076    -196.015     162.922
  C      -10.271    -197.221     163.991
  O      -10.104    -198.068     162.825
  C       -9.241    -196.109     163.830
  O       -9.022    -195.420     165.053
  C       -8.041    -196.895     163.314
  O       -7.358    -197.539     164.404
  C       -8.717    -197.959     162.417
  N       -8.607    -197.662     160.992
  C       -7.312    -197.668     160.474
  O       -6.309    -197.885     161.162
  N       -7.206    -197.397     159.138
  C       -8.235    -197.092     158.290
  O       -8.076    -196.869     157.098
  C       -9.573    -197.053     158.909
  C       -9.696    -197.334     160.212
  O      -14.486    -196.732     162.641
  O      -13.992    -194.446     163.792
  H      -14.419    -197.174     161.774
  H       -6.532    -197.910     164.032
  H       -6.278    -197.407     158.741
  H      -10.412    -196.792     158.272
  H      -10.674    -197.310     160.682
  H       -8.269    -198.942     162.594
  H       -7.310    -196.260     162.796
  H       -9.577    -195.400     163.063
  H      -10.044    -197.817     164.885
  H      -12.375    -197.585     164.232
  H      -11.840    -196.069     164.963
  P       -9.717    -193.976     165.206
  C       -9.676    -191.775     163.785
  O       -9.268    -193.121     163.924
  O       -8.858    -193.349     166.413
  O      -11.186    -194.038     165.459
  H       -7.900    -193.508     166.322
  H       -9.009    -191.282     163.075
  H       -9.635    -191.244     164.736
  H      -10.697    -191.750     163.392
  H      -13.505    -193.209     160.048
  H      -12.452    -193.192     161.442
  H      -14.165    -192.908     161.638

 3  4  5  6  7  8  9  10  11  12  13  24  28  29  30  31  32 0
 6-311+G(2d,p)
 ****
 33  34 0
 6-311+G(2d,p)
 ****
 1  2  14  15  16  17  18  19  20  21  22  23  25  26  27 0
 3-21G
 ****
 35  36  37  38  39  40  41  42  43  44  45 0
 3-21G
 ****


