%nproc=1
%NoSave
%Mem=1900MB
#P OB98/GEN NMR

erre ene a

0 1
  C     -187.461    -890.470     295.753
  O     -187.212    -890.810     297.102
  H     -187.483    -889.370     295.671
  H     -188.426    -890.860     295.429
  H     -186.663    -890.850     295.104
  P     -187.200    -892.360     297.506
  C     -184.715    -892.750     296.925
  O     -186.063    -893.070     296.604
  C     -183.791    -893.900     296.498
  O     -183.968    -894.980     297.453
  C     -184.134    -894.430     295.092
  O     -183.015    -894.470     294.225
  C     -184.847    -895.760     295.387
  O     -184.762    -896.710     294.345
  C     -184.221    -896.200     296.714
  N     -185.078    -897.100     297.500
  C     -184.531    -898.300     297.908
  O     -183.373    -898.660     297.683
  N     -185.364    -899.130     298.626
  C     -186.658    -898.860     298.954
  O     -187.353    -899.640     299.598
  C     -187.188    -897.570     298.470
  C     -186.395    -896.770     297.773
  O     -188.523    -893.050     297.490
  O     -186.544    -892.370     298.980
  H     -185.238    -897.520     294.637
  H     -187.251    -892.480     299.645
  H     -184.968    -900.000     298.935
  H     -188.211    -897.340     298.693
  H     -186.760    -895.820     297.387
  H     -183.278    -896.700     296.542
  H     -185.913    -895.540     295.541
  H     -184.838    -893.760     294.579
  H     -182.751    -893.570     296.556
  H     -184.650    -892.610     298.013
  H     -184.424    -891.830     296.417
  P     -182.965    -893.820     292.763
  C     -180.550    -892.990     293.342
  O     -181.813    -892.720     292.743
  O     -184.288    -893.420     292.188
  O     -182.359    -895.020     291.842
  H     -182.784    -894.910     290.953
  H     -179.912    -892.138     293.229
  H     -180.103    -893.837     292.865
  H     -180.686    -893.198     294.383

 6  7  8  9  10  11  12  13  14  15  16  26  31  32  33  34  35 0
 6-311+G(2d,p)
 ****
 36  37 0
 6-311+G(2d,p)
 ****
 1  2  3  4  5  17  18  19  20  21  22  23  24  25 0
 3-21G
 ****
 27  28  29  30  38  39  40  41  42  43  44  45 0
 3-21G
 ****


