%nproc=1
%NoSave
%Mem=1900MB
#P OB98/GEN NMR

erre ene a

0 1
  C     -835.665    1143.896     -85.779
  O     -834.549    1143.015     -85.739
  H     -835.660    1144.411     -86.734
  H     -835.587    1144.633     -84.979
  H     -836.587    1143.324     -85.684
  P     -834.347    1142.175     -84.380
  C     -832.789    1144.094     -83.586
  O     -833.919    1143.287     -83.294
  C     -831.943    1144.317     -82.330
  O     -832.661    1145.140     -81.393
  C     -831.584    1143.056     -81.587
  O     -830.434    1142.439     -82.177
  C     -831.260    1143.601     -80.208
  O     -829.925    1144.136     -80.186
  C     -832.288    1144.735     -80.056
  N     -834.910    1145.437     -75.690
  C     -833.641    1145.782     -76.047
  N     -833.005    1145.517     -77.187
  C     -833.791    1144.828     -78.064
  C     -835.097    1144.406     -77.824
  C     -835.665    1144.729     -76.578
  N     -836.939    1144.384     -76.225
  N     -835.580    1143.714     -78.919
  C     -834.621    1143.780     -79.802
  N     -833.501    1144.399     -79.323
  O     -833.469    1140.981     -84.487
  O     -835.863    1141.873     -83.978
  H     -829.315    1143.387     -80.312
  H     -836.427    1142.648     -84.146
  H     -833.086    1146.341     -75.308
  H     -834.684    1143.398     -80.817
  H     -831.855    1145.615     -79.559
  H     -831.303    1142.830     -79.425
  H     -832.413    1142.350     -81.521
  H     -831.047    1144.866     -82.625
  H     -833.113    1145.062     -83.997
  H     -837.196    1144.504     -75.258
  H     -837.446    1143.761     -76.830
  H     -832.205    1143.578     -84.342
  P     -830.372    1140.859     -82.438
  C     -828.819    1140.641     -80.413
  O     -830.040    1140.210     -81.008
  O     -829.481    1140.452     -83.568
  O     -831.901    1140.447     -82.663
  H     -831.950    1139.554     -83.108
  H     -828.691    1140.154     -79.469
  H     -828.848    1141.701     -80.266
  H     -828.001    1140.392     -81.057

 6  7  8  9  10  11  12  13  14  15  25  28  32  33  34  35 0
 6-311+G(2d,p)
 ****
 36  39  40 0
 6-311+G(2d,p)
 ****
 1  2  3  4  5  16  17  18  19  20  21  22  23  24 0
 3-21G
 ****
 26  27  29  30  31  37  38  41  42  43  44  45  46  47 0
 3-21G
 ****
 48 0
 3-21G
 ****


