%nproc=1
%NoSave
%Mem=1900MB
#P OB98/GEN NMR

erre ene a

0 1
  C       65.619    -260.254     218.013
  O       65.739    -259.621     219.273
  H       65.827    -259.521     217.228
  H       64.602    -260.635     217.879
  H       66.336    -261.074     217.934
  P       65.504    -260.546     220.565
  C       67.153    -259.212     222.076
  O       65.815    -259.615     221.836
  C       67.283    -258.620     223.489
  O       66.625    -257.319     223.515
  C       66.615    -259.479     224.583
  O       67.329    -259.290     225.817
  C       65.245    -258.832     224.696
  O       64.610    -259.219     225.889
  C       65.644    -257.361     224.573
  N       61.464    -255.171     226.510
  C       62.435    -255.917     227.078
  N       63.522    -256.461     226.495
  C       63.570    -256.135     225.186
  C       62.661    -255.383     224.470
  C       61.552    -254.893     225.183
  N       60.550    -254.142     224.607
  N       63.040    -255.290     223.143
  C       64.172    -255.970     223.069
  N       64.527    -256.496     224.278
  O       66.744    -261.557     220.518
  O       64.195    -261.264     220.619
  H       63.647    -259.043     225.851
  H       66.495    -262.371     220.040
  H       62.320    -256.114     228.145
  H       64.760    -256.119     222.167
  H       66.122    -256.990     225.492
  H       64.597    -259.134     223.866
  H       66.583    -260.547     224.337
  H       68.344    -258.441     223.713
  H       67.431    -258.455     221.333
  H       67.818    -260.077     221.985
  H       59.781    -253.855     225.186
  H       60.588    -253.958     223.617
  P       68.414    -260.393     226.270
  C       70.009    -258.769     227.551
  O       69.173    -259.914     227.610
  O       69.552    -260.216     225.155
  O       67.925    -261.802     226.297
  H       69.829    -261.096     224.830
  H       70.434    -258.587     228.516
  H       69.431    -257.920     227.250
  H       70.793    -258.936     226.842

 6  7  8  9  10  11  12  13  14  15  25  28  32  33  34  35 0
 6-311+G(2d,p)
 ****
 36  37  40 0
 6-311+G(2d,p)
 ****
 1  2  3  4  5  16  17  18  19  20  21  22  23  24 0
 3-21G
 ****
 26  27  29  30  31  38  39 41  42  43  44  45  46  47  48 0
 3-21G
 ****


