%nproc=1
%NoSave
%Mem=1900MB
#P OB98/GEN NMR

erre ene a

0 1
  C      258.121     290.552     425.542
  O      257.316     290.183     426.643
  P      255.726     290.098     426.476
  C      255.474     292.312     427.760
  O      255.141     291.587     426.573
  C      255.648     293.795     427.433
  O      256.734     293.986     426.499
  C      254.428     294.436     426.786
  O      253.416     294.687     427.742
  C      255.046     295.684     426.164
  O      255.188     296.723     427.146
  C      256.427     295.170     425.731
  N      256.919     297.180     421.063
  C      256.729     297.751     422.277
  N      256.569     297.147     423.470
  C      256.596     295.806     423.329
  C      256.741     295.087     422.152
  C      256.936     295.829     420.974
  N      257.195     295.262     419.748
  N      256.689     293.725     422.409
  C      256.492     293.638     423.714
  N      256.500     294.866     424.315
  O      255.049     289.095     427.347
  O      255.521     289.736     424.930
  H      255.617     296.326     427.928
  H      255.056     288.879     424.856
  H      256.711     298.838     422.285
  H      256.366     292.714     424.260
  H      257.217     295.900     425.946
  H      254.447     296.091     425.344
  H      254.047     293.787     425.984
  H      255.909     294.321     428.367
  H      256.409     291.908     428.160
  H      257.458     295.890     419.000
  H      257.510     294.297     419.716
  H      254.681     292.177     428.503
  P      251.960     294.055     427.549
  C      250.767     296.241     428.151
  O      250.979     295.256     427.157
  O      251.484     293.174     428.657
  O      252.085     293.237     426.172
  H      251.504     292.449     426.205
  H      250.061     295.865     428.896
  H      250.339     297.131     427.679
  H      251.702     296.514     428.641
  H      259.149     290.555     425.837
  H      257.842     291.530     425.208
  H      257.981     289.850     424.747

 3  4  5  6  7  8  9  10  11  12  22  25  29  30  31  32 0
 6-311+G(2d,p)
 ****
 33  36  37 0
 6-311+G(2d,p)
 ****
 1  2  13  14  15  16  17  18  19  20  21  23  24  26 0
 3-21G
 ****
 27  28  34  35  38  39  40  41  42  43  44  45  46  47  48 0
 3-21G
 ****


