%nproc=1
%NoSave
%Mem=1900MB
#P OB98/GEN NMR

erre ene a

0 1
  C     -202.561     794.293    -225.795
  O     -202.376     795.225    -224.742
  P     -201.188     796.295    -224.913
  C     -202.196     798.372    -226.153
  O     -201.863     797.750    -224.894
  C     -203.111     799.575    -225.903
  O     -204.441     799.125    -225.556
  C     -202.689     800.461    -224.732
  O     -201.580     801.273    -225.093
  C     -203.983     801.229    -224.476
  O     -204.140     802.285    -225.456
  C     -205.051     800.144    -224.718
  N     -208.447     796.963    -222.559
  C     -208.326     797.436    -223.813
  N     -207.418     798.292    -224.316
  C     -206.557     798.678    -223.337
  C     -206.576     798.297    -222.014
  C     -207.576     797.399    -221.608
  N     -207.705     796.927    -220.333
  N     -205.550     798.935    -221.319
  C     -204.909     799.640    -222.231
  N     -205.477     799.519    -223.459
  O     -200.742     796.121    -226.434
  O     -200.043     796.114    -223.959
  H     -203.434     802.934    -225.304
  H     -199.776     796.263    -226.534
  H     -209.060     797.060    -224.545
  H     -204.034     800.266    -222.027
  H     -205.917     800.523    -225.222
  H     -204.023     801.683    -223.479
  H     -202.424     799.874    -223.848
  H     -203.154     800.149    -226.822
  H     -202.725     797.627    -226.768
  H     -208.531     796.403    -220.089
  H     -207.131     797.356    -219.592
  H     -201.277     798.665    -226.659
  P     -200.764     802.000    -223.912
  C     -199.174     799.975    -224.055
  O     -199.259     801.400    -224.045
  O     -201.347     801.260    -222.618
  O     -200.863     803.502    -223.899
  H     -201.337     800.303    -222.715
  H     -198.156     799.718    -224.187
  H     -199.783     799.592    -224.881
  H     -199.526     799.578    -223.100
  H     -203.377     793.643    -225.557
  H     -201.670     793.715    -225.920
  H     -202.776     794.818    -226.702

 3  4  5  6  7  8  9  10  11  12  22  25  29  30  31  32 0
 6-311+G(2d,p)
 ****
 33  36  37 0
 6-311+G(2d,p)
 ****
 1  2  13  14  15  16  17  18  19  20  21  23  24  26 0
 3-21G
 ****
 27  28  34  35  38  39  40  41  42  43  44  45  46  47  48 0
 3-21G
 ****


