%nproc=1
%NoSave
%Mem=1900MB
#P OB98/GEN NMR

erre ene a

0 1
  C     -876.615     374.712    -421.060
  O     -877.588     373.825    -420.546
  H     -877.041     375.230    -421.925
  H     -875.731     374.160    -421.387
  H     -876.335     375.456    -420.310
  P     -877.253     373.009    -419.207
  C     -879.141     374.194    -417.920
  O     -877.750     373.919    -417.978
  C     -879.380     375.687    -417.684
  O     -878.922     376.429    -418.847
  C     -880.849     376.041    -417.455
  O     -880.923     377.075    -416.465
  C     -881.298     376.589    -418.795
  O     -882.391     377.499    -418.673
  C     -880.018     377.239    -419.310
  N     -881.138     380.214    -423.241
  C     -881.197     380.466    -421.882
  N     -881.644     381.684    -421.509
  N     -880.851     379.594    -420.966
  C     -880.409     378.423    -421.481
  C     -880.312     378.050    -422.798
  C     -880.712     379.016    -423.801
  O     -880.689     378.841    -425.016
  N     -879.848     376.758    -422.912
  C     -879.669     376.358    -421.668
  N     -880.005     377.329    -420.764
  O     -875.845     372.523    -419.088
  O     -878.300     371.802    -419.214
  H     -882.034     378.329    -418.295
  H     -877.880     370.981    -419.530
  H     -881.427     380.907    -423.899
  H     -879.311     375.386    -421.376
  H     -879.883     378.258    -418.929
  H     -881.613     375.765    -419.439
  H     -881.913     382.405    -422.155
  H     -881.453     375.185    -417.130
  H     -881.671     381.907    -420.519
  H     -878.760     376.008    -416.836
  H     -879.572     373.617    -417.099
  H     -879.610     373.883    -418.858
  P     -881.422     376.698    -414.986
  C     -879.380     377.616    -413.705
  O     -880.128     376.457    -414.064
  O     -882.469     375.637    -414.908
  O     -881.976     378.100    -414.436
  H     -882.696     377.923    -413.802
  H     -878.549     377.329    -413.095
  H     -880.007     378.290    -413.160
  H     -879.023     378.098    -414.591

 6  7  8  9  10  11  12  13  14  15  26  29  33  34 0
 6-311+G(2d,p)
 ****
 36  38  39  40  41 0
 6-311+G(2d,p)
 ****
 1  2  3  4  5  16  17  18  19  20  21  22  23  24  25 0
 3-21G
 ****
 27  28  30  31  32  35  37  42  43  44  45  46  47 0
 3-21G
 ****
 48  49 0
 3-21G
 ****


