%nproc=1
%NoSave
%Mem=1900MB
#P OB98/GEN NMR

erre ene a

0 1
  C      109.576      91.348    -162.046
  O      110.520      92.108    -161.301
  P      110.096      93.576    -160.813
  C      109.767      95.866    -161.988
  O      109.842      94.455    -162.135
  C      108.978      96.500    -163.132
  O      107.640      95.930    -163.156
  C      108.824      98.022    -163.033
  O      108.807      98.535    -164.373
  C      107.442      98.187    -162.422
  O      106.894      99.479    -162.673
  C      106.705      97.033    -163.101
  N      101.604      97.392    -162.903
  C      102.506      97.881    -163.781
  N      103.849      97.743    -163.768
  C      104.241      97.013    -162.708
  C      103.442      96.480    -161.711
  C      102.056      96.687    -161.837
  N      101.135      96.181    -160.948
  N      104.208      95.818    -160.773
  C      105.451      95.948    -161.199
  N      105.515      96.641    -162.375
  O      111.468      94.160    -160.230
  O      109.010      93.619    -159.793
  H      106.807      99.590    -163.639
  H      111.403      94.257    -159.259
  H      102.096      98.453    -164.606
  H      106.326      95.568    -160.692
  H      106.409      97.277    -164.130
  H      107.496      98.043    -161.340
  H      109.604      98.514    -162.448
  H      109.460      96.224    -164.078
  H      110.781      96.276    -161.993
  H      100.156      96.258    -161.177
  H      101.441      95.501    -160.259
  H      109.300      96.108    -161.025
  P      109.094     100.104    -164.550
  C      107.586     102.213    -164.506
  O      107.763     100.872    -164.097
  O      109.120     100.295    -166.141
  O      110.365     100.568    -163.919
  H      109.693     101.051    -166.374
  H      106.519     102.398    -164.658
  H      108.122     102.433    -165.435
  H      107.953     102.881    -163.716
  H      110.001      90.399    -162.298
  H      109.322      91.874    -162.943
  H      108.694      91.199    -161.458

 3  4  5  6  7  8  9  10  11  12  22  25  29  30  31  32 0
 6-311+G(2d,p)
 ****
 33  36  37 0
 6-311+G(2d,p)
 ****
 1  2  13  14  15  16  17  18  19  20  21  23  24  26 0
 3-21G
 ****
 27  28  34  35  38  39  40  41  42  43  44  45  46  47  48 0
 3-21G
 ****


