%nproc=1
%NoSave
%Mem=1900MB
#P OB98/GEN NMR

erre ene a

0 1
  C      210.368    -181.324    -380.669
  O      209.540    -182.344    -380.161
  H      209.736    -180.511    -381.039
  H      210.978    -181.694    -381.499
  H      211.015    -180.924    -379.881
  P      210.226    -183.686    -379.610
  C      209.305    -183.896    -377.206
  O      210.400    -183.500    -378.026
  C      209.701    -183.839    -375.726
  O      210.743    -184.824    -375.510
  C      210.246    -182.464    -375.315
  O      209.581    -181.925    -374.171
  C      211.745    -182.696    -375.230
  O      212.425    -181.815    -374.356
  C      211.857    -184.180    -374.861
  N      213.114    -184.796    -375.258
  C      214.119    -184.879    -374.299
  O      214.024    -184.482    -373.135
  N      215.291    -185.461    -374.708
  C      215.552    -185.942    -375.964
  O      216.626    -186.450    -376.275
  C      214.463    -185.800    -376.942
  C      213.306    -185.244    -376.549
  O      211.460    -184.120    -380.326
  O      209.064    -184.786    -379.718
  H      211.991    -181.879    -373.481
  H      209.249    -185.380    -380.476
  H      216.015    -185.541    -374.021
  H      214.638    -186.161    -377.945
  H      212.485    -185.127    -377.245
  H      211.746    -184.314    -373.782
  H      212.181    -182.542    -376.230
  H      210.039    -181.718    -376.092
  H      208.833    -184.129    -375.118
  H      209.024    -184.918    -377.487
  H      208.452    -183.229    -377.384
  P      208.581    -180.680    -374.192
  C      206.554    -181.976    -373.126
  O      207.084    -181.239    -374.224
  O      208.913    -179.588    -375.160
  O      208.706    -180.064    -372.708
  H      208.567    -179.101    -372.794
  H      205.545    -182.259    -373.340
  H      206.575    -181.368    -372.245
  H      207.145    -182.854    -372.967

 6  7  8  9  10  11  12  13  14  15  16  26  31  32  33  34  35 0
 6-311+G(2d,p)
 ****
 36  37 0
 6-311+G(2d,p)
 ****
 1  2  3  4  5  17  18  19  20  21  22  23  24  25 0
 3-21G
 ****
 27  28  29  30  38  39  40  41  42  43  44  45 0
 3-21G
 ****


