%nproc=1
%NoSave
%Mem=1900MB
#P OB98/GEN NMR

erre ene a

0 1
  C     -505.894      40.685     355.097
  O     -505.361      39.633     354.311
  P     -504.388      39.942     353.073
  C     -505.522      38.052     351.719
  O     -505.186      39.429     351.772
  C     -506.110      37.703     350.353
  O     -507.371      38.378     350.190
  C     -505.254      38.136     349.179
  O     -504.157      37.267     348.987
  C     -506.289      38.134     348.051
  O     -506.504      36.805     347.577
  C     -507.546      38.657     348.783
  N     -507.798      40.076     348.558
  C     -508.137      40.441     347.244
  O     -508.233      39.598     346.352
  N     -508.401      41.766     346.976
  C     -508.320      42.650     347.934
  N     -508.667      43.928     347.633
  C     -507.912      42.312     349.310
  C     -507.674      41.019     349.546
  O     -502.999      39.398     353.215
  O     -504.438      41.533     352.897
  H     -505.681      36.514     347.158
  H     -503.771      42.008     353.450
  H     -507.839      43.081     350.060
  H     -507.389      40.688     350.541
  H     -508.433      38.076     348.466
  H     -506.001      38.756     347.186
  H     -504.884      39.162     349.329
  H     -506.289      36.625     350.312
  H     -509.106      44.081     346.733
  H     -506.266      37.836     352.496
  H     -508.902      44.597     348.355
  H     -504.624      37.445     351.929
  P     -502.702      37.814     349.398
  C     -501.733      36.126     347.665
  O     -501.736      37.465     348.153
  O     -502.246      36.776     350.548
  O     -502.669      39.232     349.866
  H     -502.349      37.193     351.432
  H     -501.221      36.123     346.691
  H     -502.746      35.760     347.534
  H     -501.168      35.485     348.350
  H     -506.514      40.276     355.867
  H     -506.477      41.334     354.477
  H     -505.094      41.240     355.540

 3  4  5  6  7  8  9  10  11  12  13  23  27  28  29  30  32 0
 6-311+G(2d,p)
 ****
 34  35 0
 6-311+G(2d,p)
 ****
 1  2  14  15  16  17  18  19  20  21  22  24  25  26 0
 3-21G
 ****
 31  33  36  37  38  39  40  41  42  43  44  45  46 0
 3-21G
 ****


