%nproc=1
%NoSave
%Mem=1900MB
#P OB98/GEN NMR

erre ene a

0 1
  C      -30.457    -111.892     -65.034
  O      -29.633    -111.251     -64.083
  H      -30.429    -112.969     -64.855
  H      -30.090    -111.697     -66.045
  H      -31.494    -111.551     -64.946
  P      -29.652    -109.648     -63.992
  C      -31.764    -109.960     -62.543
  O      -31.148    -109.226     -63.593
  C      -31.513    -109.268     -61.204
  O      -32.242    -108.023     -61.139
  C      -31.963    -110.076     -59.992
  O      -31.053    -111.127     -59.714
  C      -32.024    -108.985     -58.931
  O      -30.717    -108.696     -58.416
  C      -32.574    -107.790     -59.750
  N      -34.013    -107.588     -59.584
  C      -34.414    -106.898     -58.444
  O      -33.622    -106.502     -57.584
  N      -35.765    -106.692     -58.311
  C      -36.731    -107.171     -59.150
  O      -37.934    -107.002     -58.956
  C      -36.253    -107.925     -60.318
  C      -34.937    -108.098     -60.478
  O      -29.090    -108.924     -65.172
  O      -28.824    -109.337     -62.657
  H      -30.790    -107.856     -57.920
  H      -27.913    -109.071     -62.889
  H      -36.074    -106.202     -57.486
  H      -36.995    -108.325     -61.001
  H      -34.567    -108.651     -61.334
  H      -32.062    -106.864     -59.457
  H      -32.647    -109.261     -58.077
  H      -32.976    -110.469     -60.153
  H      -30.438    -109.035     -61.137
  H      -31.335    -110.970     -62.520
  H      -32.840    -110.032     -62.745
  P      -31.550    -112.473     -59.006
  C      -31.443    -113.701     -61.257
  O      -32.254    -113.382     -60.134
  O      -32.359    -112.277     -57.765
  O      -30.195    -113.270     -58.695
  H      -29.997    -113.226     -57.738
  H      -32.003    -114.304     -61.941
  H      -30.579    -114.241     -60.931
  H      -31.137    -112.799     -61.744

 6  7  8  9  10  11  12  13  14  15  16  26  31  32  33  34  35 0
 6-311+G(2d,p)
 ****
 36  37 0
 6-311+G(2d,p)
 ****
 1  2  3  4  5  17  18  19  20  21  22  23  24  25 0
 3-21G
 ****
 27  28  29  30  38  39  40  41  42  43  44  45 0
 3-21G
 ****


