%nproc=1
%NoSave
%Mem=1900MB
#P OB98/GEN NMR

erre ene a

0 1
  C      796.290     134.337     116.864
  O      795.669     135.263     117.732
  H      795.583     133.993     116.106
  H      797.133     134.830     116.374
  H      796.669     133.482     117.434
  P      794.339     134.759     118.478
  C      793.051     135.440     120.629
  O      794.111     135.744     119.730
  C      793.406     135.909     122.032
  O      794.512     135.137     122.559
  C      793.852     137.366     122.131
  O      792.752     138.266     122.099
  C      794.538     137.362     123.487
  O      793.549     137.458     124.529
  C      795.199     135.968     123.519
  N      799.972     135.444     125.362
  C      798.761     135.359     125.961
  N      797.541     135.522     125.409
  C      797.632     135.787     124.094
  C      798.792     135.901     123.352
  C      800.009     135.730     124.035
  N      801.234     135.831     123.422
  N      798.497     136.164     122.034
  C      797.184     136.199     121.970
  N      796.612     135.988     123.201
  O      794.797     133.383     119.167
  O      793.149     134.559     117.600
  H      793.308     138.405     124.604
  H      794.050     132.750     119.148
  H      798.776     135.123     127.015
  H      796.610     136.385     121.070
  H      795.081     135.491     124.500
  H      795.233     138.182     123.617
  H      794.590     137.604     121.354
  H      792.530     135.726     122.677
  H      792.887     134.362     120.635
  H      802.055     135.502     123.912
  H      801.258     136.038     122.420
  H      792.143     135.942     120.275
  P      793.067     139.819     121.871
  C      791.879     141.722     120.561
  O      792.013     140.324     120.773
  O      794.450     139.786     121.060
  O      793.165     140.643     123.115
  H      794.945     140.626     121.203
  H      791.144     141.899     119.804
  H      792.818     142.127     120.247
  H      791.574     142.193     121.472

 6  7  8  9  10  11  12  13  14  15  25  28  32  33  34  35 0
 6-311+G(2d,p)
 ****
 36  39  40 0
 6-311+G(2d,p)
 ****
 1  2  3  4  5  16  17  18  19  20  21  22  23  24 0
 3-21G
 ****
 26  27  29  30  31  37  38  41  42  43  44  45  46  47  48 0
 3-21G
 ****


