%nproc=1
%NoSave
%Mem=1900MB
#P OB98/GEN NMR

erre ene a

0 1
  C      154.170    -146.960     292.509
  O      154.408    -147.431     291.196
  H      154.487    -145.919     292.592
  H      153.097    -147.021     292.714
  H      154.705    -147.574     293.240
  P      155.942    -147.592     290.753
  C      156.580    -150.101     290.987
  O      156.068    -149.076     290.148
  C      156.260    -151.479     290.403
  O      154.824    -151.579     290.204
  C      156.935    -151.742     289.053
  O      157.352    -153.109     289.004
  C      155.823    -151.503     288.047
  O      156.036    -152.206     286.829
  C      154.600    -151.965     288.833
  N      150.445    -152.776     285.978
  C      151.437    -153.596     286.383
  N      152.507    -153.302     287.149
  C      152.466    -152.017     287.546
  C      151.521    -151.060     287.215
  C      150.471    -151.482     286.382
  N      149.474    -150.642     285.935
  N      151.843    -149.842     287.788
  C      152.960    -150.066     288.451
  N      153.377    -151.362     288.331
  O      156.695    -147.696     292.165
  O      156.491    -146.496     289.904
  H      156.327    -153.117     287.045
  H      156.803    -146.801     292.541
  H      151.367    -154.624     286.037
  H      153.508    -149.326     289.021
  H      154.463    -153.055     288.797
  H      155.757    -150.433     287.817
  H      157.797    -151.095     288.878
  H      156.531    -152.245     291.140
  H      156.125    -150.010     291.980
  H      148.791    -151.016     285.295
  H      149.511    -149.661     286.175
  H      157.666    -149.983     291.079
  P      158.701    -153.485     289.787
  C      157.593    -154.565     291.866
  O      158.414    -154.758     290.724
  O      158.873    -152.278     290.826
  O      159.894    -153.611     288.895
  H      159.781    -151.923     290.774
  H      157.489    -155.491     292.391
  H      156.628    -154.220     291.558
  H      158.043    -153.838     292.510

 6  7  8  9  10  11  12  13  14  15  25  28  32  33  34  35 0
 6-311+G(2d,p)
 ****
 36  39  40 0
 6-311+G(2d,p)
 ****
 1  2  3  4  5  16  17  18  19  20  21  22  23  24 0
 3-21G
 ****
 26  27  29  30  31  37  38  41  42  43  44  45  46  47 0
 3-21G
 ****
 48 0
 3-21G
 ****


