%nproc=1
%NoSave
%Mem=1900MB
#P OB98/GEN NMR

erre ene a

0 1
  C     -899.136     366.288    -269.235
  O     -898.126     366.434    -268.256
  P     -896.696     365.708    -268.413
  C     -897.456     363.571    -267.187
  O     -896.596     364.689    -267.178
  C     -896.926     362.451    -266.290
  O     -895.886     361.707    -266.961
  C     -896.296     362.940    -264.980
  O     -897.306     363.311    -264.049
  C     -895.456     361.744    -264.593
  O     -896.266     360.762    -263.921
  C     -894.976     361.200    -265.943
  N     -893.596     361.575    -266.254
  C     -892.606     360.842    -265.583
  O     -892.936     359.961    -264.775
  N     -891.306     361.161    -265.801
  C     -890.986     362.149    -266.600
  N     -889.646     362.402    -266.762
  C     -891.996     362.963    -267.291
  C     -893.266     362.621    -267.059
  O     -895.536     366.623    -268.596
  O     -896.946     364.727    -269.655
  H     -895.636     360.002    -263.709
  H     -896.966     365.229    -270.510
  H     -891.696     363.764    -267.929
  H     -894.086     363.190    -267.537
  H     -895.056     360.124    -265.975
  H     -894.636     362.014    -263.897
  H     -895.646     363.807    -265.209
  H     -897.766     361.756    -266.072
  H     -889.006     361.827    -266.223
  H     -897.526     363.201    -268.228
  H     -889.316     363.146    -267.319
  H     -898.446     363.874    -266.876
  P     -897.386     364.824    -263.531
  C     -895.316     364.460    -262.034
  O     -896.696     364.880    -262.071
  O     -898.736     365.455    -263.599
  O     -896.346     365.602    -264.460
  H     -896.736     366.438    -264.757
  H     -894.906     364.839    -261.091
  H     -894.766     364.849    -262.883
  H     -895.296     363.387    -262.001
  H     -900.000     366.847    -268.942
  H     -899.394     365.254    -269.329
  H     -898.777     366.653    -270.175

 3  4  5  6  7  8  9  10  11  12  13  23  27  28  29  30  32 0
 6-311+G(2d,p)
 ****
 34  35 0
 6-311+G(2d,p)
 ****
 1  2  14  15  16  17  18  19  20  21  22  24  25  26 0
 3-21G
 ****
 31  33  36  37  38  39  40  41  42  43  44  45  46 0
 3-21G
 ****


