%nproc=1
%NoSave
%Mem=1900MB
#P OB98/GEN NMR

erre ene a

0 1
  C       37.766    -457.620    -183.392
  O       38.777    -457.122    -182.526
  P       40.155    -456.626    -183.186
  C       40.593    -454.538    -181.707
  O       40.190    -455.036    -182.977
  C       39.430    -453.829    -181.019
  O       38.309    -454.729    -180.870
  C       39.733    -453.321    -179.611
  O       40.419    -452.073    -179.630
  C       38.339    -453.150    -179.054
  O       37.763    -451.919    -179.539
  C       37.595    -454.352    -179.659
  N       34.874    -456.636    -175.980
  C       34.705    -455.465    -176.623
  N       35.475    -454.920    -177.588
  C       36.545    -455.701    -177.840
  C       36.874    -456.908    -177.222
  C       35.970    -457.384    -176.258
  N       36.135    -458.589    -175.612
  N       38.046    -457.410    -177.742
  C       38.427    -456.534    -178.646
  N       37.539    -455.485    -178.754
  O       39.874    -456.781    -184.765
  O       41.370    -457.373    -182.757
  H       38.422    -451.214    -179.386
  H       40.717    -456.867    -185.243
  H       33.824    -454.897    -176.351
  H       39.308    -456.622    -179.267
  H       36.564    -454.109    -179.949
  H       38.317    -453.097    -177.960
  H       40.280    -454.079    -179.027
  H       39.107    -452.999    -181.663
  H       41.412    -453.830    -181.845
  H       35.353    -458.946    -175.074
  H       36.839    -459.228    -175.975
  H       40.947    -455.381    -181.088
  P       41.992    -452.105    -179.339
  C       42.560    -450.948    -181.593
  O       42.702    -452.099    -180.784
  O       42.235    -453.598    -178.803
  O       42.460    -451.072    -178.373
  H       43.025    -453.629    -178.223
  H       43.331    -450.980    -182.382
  H       42.699    -450.035    -181.013
  H       41.583    -450.940    -182.077
  H       36.913    -457.910    -182.815
  H       38.140    -458.468    -183.927
  H       37.484    -456.857    -184.087

 3  4  5  6  7  8  9  10  11  12  22  25  29  30  31  32 0
 6-311+G(2d,p)
 ****
 33  36  37 0
 6-311+G(2d,p)
 ****
 1  2  13  14  15  16  17  18  19  20  21  23  24  26 0
 3-21G
 ****
 27  28  34  35  38  39  40  41  42  43  44  45  46  47  48 0
 3-21G
 ****


