%nproc=1
%NoSave
%Mem=1900MB
#P OB98/GEN NMR

erre ene a

0 1
  C      -49.013    -107.056     -45.305
  O      -47.943    -107.981     -45.407
  P      -48.309    -109.544     -45.433
  C      -46.481    -110.040     -47.216
  O      -46.984    -110.309     -45.914
  C      -44.966    -110.220     -47.243
  O      -44.306    -109.089     -46.637
  C      -44.468    -111.435     -46.471
  O      -44.588    -112.634     -47.216
  C      -43.004    -111.076     -46.274
  O      -42.261    -111.365     -47.474
  C      -43.073    -109.561     -46.040
  N      -40.317    -109.691     -41.800
  C      -39.949    -109.968     -43.102
  N      -38.682    -110.396     -43.290
  N      -40.747    -109.834     -44.127
  C      -41.987    -109.405     -43.787
  C      -42.468    -109.096     -42.535
  C      -41.577    -109.260     -41.408
  O      -41.860    -109.083     -40.229
  N      -43.774    -108.685     -42.588
  C      -44.085    -108.742     -43.868
  N      -43.048    -109.214     -44.630
  O      -49.286    -109.674     -46.694
  O      -48.934    -110.058     -44.181
  H      -41.314    -111.295     -47.239
  H      -49.782    -110.514     -46.646
  H      -39.665    -109.816     -41.043
  H      -45.047    -108.470     -44.284
  H      -42.250    -109.034     -46.532
  H      -42.532    -111.640     -45.465
  H      -38.037    -110.580     -42.535
  H      -44.958    -111.513     -45.492
  H      -38.403    -110.667     -44.225
  H      -44.649    -110.275     -48.292
  H      -46.733    -109.015     -47.494
  H      -46.955    -110.718     -47.933
  P      -45.315    -113.868     -46.487
  C      -45.697    -115.067     -48.759
  O      -45.118    -115.117     -47.470
  O      -46.867    -113.506     -46.630
  O      -44.908    -114.074     -45.067
  H      -47.380    -113.920     -45.911
  H      -45.251    -115.856     -49.374
  H      -45.509    -114.104     -49.239
  H      -46.773    -115.243     -48.691
  H      -48.624    -106.059     -45.299
  H      -49.553    -107.234     -44.398
  H      -49.670    -107.177     -46.141

 3  4  5  6  7  8  9  10  11  12  23  26  30  31 0
 6-311+G(2d,p)
 ****
 33  35  36  37  38 0
 6-311+G(2d,p)
 ****
 1  2  13  14  15  16  17  18  19  20  21  22  24  25 0
 3-21G
 ****
 27  28  29  32  34  39  40  41  42  43  44  45  46  47  48  49 0
 3-21G
 ****


