%nproc=1
%NoSave
%Mem=1900MB
#P OB98/GEN NMR

erre ene a

0 1
  C     1007.671     -38.360    -330.204
  O     1007.237     -37.018    -330.281
  H     1008.630     -38.385    -329.660
  H     1007.838     -38.757    -331.210
  H     1006.951     -38.979    -329.671
  P     1005.791     -36.714    -330.892
  C     1006.337     -34.252    -331.464
  O     1005.981     -35.534    -331.967
  C     1007.217     -33.529    -332.471
  O     1008.557     -34.074    -332.451
  C     1006.747     -33.660    -333.913
  O     1005.643     -32.811    -334.164
  C     1008.017     -33.292    -334.669
  O     1008.174     -31.872    -334.730
  C     1009.100     -33.932    -333.776
  N     1009.573     -35.233    -334.303
  C     1010.363     -35.182    -335.444
  O     1010.640     -34.136    -336.034
  N     1010.784     -36.395    -335.912
  C     1010.434     -37.617    -335.432
  O     1010.778     -38.677    -335.943
  C     1009.577     -37.606    -334.238
  C     1009.181     -36.419    -333.732
  O     1004.694     -36.494    -329.905
  O     1005.496     -37.983    -331.824
  H     1008.842     -31.695    -335.428
  H     1004.844     -38.567    -331.382
  H     1011.357     -36.394    -336.746
  H     1009.278     -38.553    -333.820
  H     1008.551     -36.396    -332.864
  H     1009.968     -33.264    -333.701
  H     1008.006     -33.659    -335.701
  H     1006.496     -34.703    -334.126
  H     1007.293     -32.468    -332.177
  H     1006.895     -34.391    -330.527
  H     1005.431     -33.682    -331.266
  P     1004.584     -33.204    -335.301
  C     1003.610     -30.866    -334.840
  O     1003.908     -31.843    -335.830
  O     1003.623     -34.288    -334.934
  O     1005.501     -33.660    -336.536
  H     1005.295     -34.578    -336.763
  H     1003.167     -30.010    -335.305
  H     1004.512     -30.575    -334.343
  H     1002.927     -31.278    -334.127

 6  7  8  9  10  11  12  13  14  15  16  26  31  32  33  34  35 0
 6-311+G(2d,p)
 ****
 36  37 0
 6-311+G(2d,p)
 ****
 1  2  3  4  5  17  18  19  20  21  22  23  24  25 0
 3-21G
 ****
 27  28  29  30  38  39  40  41  42  43  44  45 0
 3-21G
 ****


