%nproc=1
%NoSave
%Mem=1900MB
#P OB98/GEN NMR

erre ene a

0 1
  C      248.455    -567.109    -156.273
  O      248.399    -565.744    -155.914
  H      249.321    -567.565    -155.784
  H      248.573    -567.204    -157.356
  H      247.554    -567.640    -155.951
  P      247.064    -564.918    -156.221
  C      246.778    -563.730    -153.948
  O      247.112    -563.592    -155.323
  C      246.706    -562.358    -153.266
  O      248.045    -561.799    -153.181
  C      245.859    -561.369    -154.082
  O      245.254    -560.377    -153.258
  C      246.895    -560.705    -154.976
  O      246.485    -559.426    -155.453
  C      248.108    -560.659    -154.052
  N      251.375    -558.008    -156.935
  C      250.081    -557.696    -156.575
  N      249.588    -556.523    -157.039
  N      249.325    -558.472    -155.842
  C      249.917    -559.648    -155.511
  C      251.180    -560.078    -155.832
  C      252.022    -559.192    -156.612
  O      253.169    -559.431    -156.980
  N      251.431    -561.328    -155.329
  C      250.317    -561.663    -154.702
  N      249.373    -560.659    -154.765
  O      245.917    -565.777    -155.507
  O      246.761    -564.696    -157.672
  H      245.787    -559.574    -156.121
  H      245.048    -565.583    -155.900
  H      251.920    -557.364    -157.475
  H      250.146    -562.593    -154.181
  H      248.089    -559.763    -153.427
  H      247.051    -561.341    -155.851
  H      250.062    -555.997    -157.759
  H      245.091    -561.860    -154.672
  H      248.570    -556.426    -157.049
  H      246.344    -562.470    -152.238
  H      247.556    -564.344    -153.491
  H      245.833    -564.265    -153.839
  P      243.689    -560.084    -153.439
  C      243.510    -559.555    -150.850
  O      243.141    -559.267    -152.180
  O      243.015    -561.526    -153.283
  O      243.331    -559.435    -154.741
  H      242.588    -561.796    -154.117
  H      243.016    -558.875    -150.188
  H      244.570    -559.450    -150.743
  H      243.225    -560.558    -150.610

 6  7  8  9  10  11  12  13  14  15  26  29  33  34 0
 6-311+G(2d,p)
 ****
 36  38  39  40  41 0
 6-311+G(2d,p)
 ****
 1  2  3  4  5  16  17  18  19  20  21  22  23  24  25 0
 3-21G
 ****
 27  28  30  31  32  35  37  42  43  44  45  46  47 0
 3-21G
 ****
 48  49 0
 3-21G
 ****


