%nproc=1
%NoSave
%Mem=1900MB
#P OB98/GEN NMR

erre ene a

0 1
  C      346.405    -331.943    -222.810
  O      347.661    -332.281    -222.233
  P      348.390    -331.194    -221.309
  C      350.065    -330.668    -223.218
  O      349.889    -331.042    -221.859
  C      351.494    -330.186    -223.479
  O      351.728    -328.975    -222.694
  C      352.593    -331.183    -223.099
  O      353.669    -331.005    -224.020
  C      353.023    -330.721    -221.730
  O      354.325    -331.195    -221.373
  C      352.917    -329.208    -221.906
  N      355.397    -327.871    -217.637
  C      355.806    -328.548    -218.732
  N      355.085    -328.861    -219.835
  C      353.816    -328.398    -219.719
  C      353.260    -327.730    -218.646
  C      354.111    -327.460    -217.563
  N      353.712    -326.763    -216.445
  N      351.933    -327.451    -218.888
  C      351.688    -327.952    -220.087
  N      352.809    -328.513    -220.645
  O      348.573    -331.974    -219.927
  O      347.649    -329.914    -221.119
  H      354.306    -332.172    -221.376
  H      348.004    -331.575    -219.234
  H      356.847    -328.871    -218.736
  H      350.732    -327.924    -220.591
  H      353.776    -328.794    -222.446
  H      352.324    -331.085    -220.970
  H      352.262    -332.237    -223.109
  H      351.577    -329.903    -224.534
  H      349.374    -329.852    -223.447
  H      354.406    -326.482    -215.775
  H      352.814    -326.290    -216.461
  H      349.840    -331.520    -223.865
  P      354.763    -332.175    -224.108
  C      356.765    -330.570    -223.757
  O      356.126    -331.513    -224.606
  O      354.281    -333.042    -225.383
  O      354.857    -333.015    -222.876
  H      354.564    -333.960    -225.274
  H      357.852    -330.648    -223.892
  H      356.525    -330.739    -222.705
  H      356.452    -329.560    -224.038
  H      346.049    -332.765    -223.395
  H      346.520    -331.083    -223.436
  H      345.702    -331.727    -222.033

 3  4  5  6  7  8  9  10  11  12  22  25  29  30  31  32 0
 6-311+G(2d,p)
 ****
 33  36  37 0
 6-311+G(2d,p)
 ****
 1  2  13  14  15  16  17  18  19  20  21  23  24  26 0
 3-21G
 ****
 27  28  34  35  38  39  40  41  42  43  44  45  46  47  48 0
 3-21G
 ****


