%nproc=1
%NoSave
%Mem=1900MB
#P OB98/GEN NMR

erre ene a

0 1
  C      468.049    -261.820    -776.712
  O      467.481    -261.688    -778.017
  P      468.317    -260.963    -779.174
  C      467.509    -258.532    -778.757
  O      468.608    -259.438    -778.752
  C      468.010    -257.102    -778.531
  O      468.501    -256.917    -777.178
  C      469.201    -256.750    -779.419
  O      468.949    -256.612    -780.810
  C      469.793    -255.545    -778.703
  O      469.114    -254.334    -779.036
  C      469.544    -255.910    -777.219
  N      470.750    -256.386    -776.538
  C      471.345    -255.476    -775.658
  O      470.938    -254.328    -775.498
  N      472.462    -255.918    -775.014
  C      473.058    -257.147    -775.170
  O      474.079    -257.484    -774.577
  C      472.385    -258.056    -776.127
  C      471.289    -257.630    -776.753
  O      467.801    -261.145    -780.560
  O      469.774    -261.647    -779.028
  H      468.152    -254.520    -778.985
  H      470.113    -261.808    -779.931
  H      472.923    -255.275    -774.379
  H      472.842    -259.041    -776.285
  H      470.787    -258.287    -777.471
  H      469.156    -255.037    -776.677
  H      470.849    -255.402    -778.954
  H      469.940    -257.572    -779.333
  H      467.179    -256.406    -778.678
  H      466.796    -258.806    -777.976
  H      466.984    -258.623    -779.710
  P      469.157    -257.794    -781.863
  C      471.509    -256.726    -782.223
  O      470.738    -257.913    -782.181
  O      468.229    -257.861    -783.030
  O      468.932    -259.089    -780.936
  H      468.518    -259.801    -781.487
  H      472.538    -257.002    -782.468
  H      471.489    -256.234    -781.236
  H      471.121    -256.050    -782.989
  H      467.357    -262.325    -776.071
  H      468.259    -260.849    -776.315
  H      468.956    -262.384    -776.773

 3  4  5  6  7  8  9  10  11  12  13  23  28  29  30  31  32 0
 6-311+G(2d,p)
 ****
 33  34 0
 6-311+G(2d,p)
 ****
 1  2  14  15  16  17  18  19  20  21  22  24  25  26  27 0
 3-21G
 ****
 35  36  37  38  39  40  41  42  43  44  45 0
 3-21G
 ****


