%nproc=1
%NoSave
%Mem=1900MB
#P OB98/GEN NMR

erre ene a

0 1
  C     -109.610    -235.961     -58.498
  O     -109.657    -237.341     -58.850
  P     -110.440    -238.352     -57.887
  C     -108.490    -239.974     -57.137
  O     -109.431    -238.975     -56.819
  C     -107.897    -240.547     -55.838
  O     -107.256    -239.500     -55.080
  C     -108.944    -241.181     -54.926
  O     -109.183    -242.536     -55.257
  C     -108.323    -240.992     -53.558
  O     -107.290    -241.969     -53.336
  C     -107.708    -239.579     -53.699
  N     -108.572    -238.411     -53.414
  C     -108.185    -237.477     -52.459
  O     -107.147    -237.547     -51.803
  N     -109.035    -236.419     -52.270
  C     -110.120    -236.110     -53.037
  O     -110.814    -235.117     -52.861
  C     -110.403    -237.048     -54.128
  C     -109.642    -238.140     -54.259
  O     -110.799    -239.583     -58.840
  O     -111.660    -237.767     -57.243
  H     -107.715    -242.846     -53.343
  H     -111.765    -239.664     -58.944
  H     -108.808    -235.770     -51.533
  H     -111.225    -236.820     -54.792
  H     -109.844    -238.842     -55.062
  H     -106.825    -239.477     -53.056
  H     -109.055    -241.141     -52.768
  H     -109.872    -240.603     -54.956
  H     -107.135    -241.289     -56.103
  H     -107.692    -239.573     -57.765
  H     -108.977    -240.771     -57.711
  P     -110.617    -242.981     -55.814
  C     -111.340    -244.089     -53.617
  O     -111.580    -243.038     -54.532
  O     -110.632    -244.189     -56.690
  O     -111.142    -241.675     -56.584
  H     -110.948    -241.737     -57.548
  H     -111.948    -243.921     -52.723
  H     -110.285    -244.112     -53.328
  H     -111.622    -245.044     -54.065
  H     -109.054    -235.423     -59.237
  H     -109.135    -235.852     -57.545
  H     -110.605    -235.572     -58.447

 3  4  5  6  7  8  9  10  11  12  13  23  28  29  30  31  32 0
 6-311+G(2d,p)
 ****
 33  34 0
 6-311+G(2d,p)
 ****
 1  2  14  15  16  17  18  19  20  21  22  24  25  26  27 0
 3-21G
 ****
 35  36  37  38  39  40  41  42  43  44  45 0
 3-21G
 ****


