%nproc=1
%NoSave
%Mem=1900MB
#P OB98/GEN NMR

erre ene a

0 1
  C     -225.358    -378.392    -356.447
  O     -225.438    -378.357    -357.856
  P     -225.444    -376.956    -358.637
  C     -225.509    -378.237    -360.873
  O     -226.129    -377.250    -360.063
  C     -226.247    -378.384    -362.204
  O     -227.512    -379.069    -362.015
  C     -226.622    -377.054    -362.852
  O     -225.563    -376.225    -363.311
  C     -227.643    -377.503    -363.878
  O     -227.009    -378.019    -365.054
  C     -228.373    -378.650    -363.121
  N     -229.694    -378.236    -362.651
  C     -230.569    -379.266    -362.330
  O     -230.280    -380.462    -362.424
  N     -231.815    -378.883    -361.904
  C     -232.280    -377.596    -361.840
  O     -233.429    -377.331    -361.503
  C     -231.313    -376.549    -362.215
  C     -230.083    -376.908    -362.594
  O     -224.131    -376.261    -358.709
  O     -226.586    -376.120    -357.877
  H     -227.717    -378.293    -365.675
  H     -227.473    -376.529    -357.899
  H     -232.467    -379.617    -361.684
  H     -231.641    -375.524    -362.152
  H     -229.355    -376.160    -362.879
  H     -228.492    -379.531    -363.778
  H     -228.291    -376.681    -364.198
  H     -227.165    -376.451    -362.110
  H     -225.635    -379.007    -362.864
  H     -225.534    -379.202    -360.344
  H     -224.446    -377.969    -361.028
  P     -225.465    -374.665    -362.975
  C     -224.862    -373.932    -365.393
  O     -225.778    -373.847    -364.317
  O     -224.286    -374.216    -362.160
  O     -226.799    -374.425    -362.126
  H     -226.648    -373.722    -361.471
  H     -225.209    -373.277    -366.200
  H     -224.804    -374.955    -365.769
  H     -223.867    -373.594    -365.075
  H     -225.367    -379.409    -356.114
  H     -226.195    -377.873    -356.029
  H     -224.451    -377.921    -356.129

 3  4  5  6  7  8  9  10  11  12  13  23  28  29  30  31  32 0
 6-311+G(2d,p)
 ****
 33  34 0
 6-311+G(2d,p)
 ****
 1  2  14  15  16  17  18  19  20  21  22  24  25  26  27 0
 3-21G
 ****
 35  36  37  38  39  40  41  42  43  44  45 0
 3-21G
 ****


