%nproc=1
%NoSave
%Mem=1900MB
#P OB98/GEN NMR

erre ene a

0 1
  C     -117.118     558.702    -508.950
  O     -116.788     559.916    -508.302
  H     -117.972     558.881    -509.608
  H     -117.382     557.931    -508.225
  H     -116.277     558.364    -509.570
  P     -115.578     559.911    -507.245
  C     -114.167     561.775    -508.334
  O     -114.989     561.410    -507.238
  C     -114.581     563.155    -508.865
  O     -115.804     563.051    -509.618
  C     -114.835     564.193    -507.772
  O     -113.611     564.757    -507.328
  C     -115.692     565.195    -508.532
  O     -114.860     565.981    -509.407
  C     -116.587     564.251    -509.368
  N     -121.592     563.710    -510.053
  C     -120.641     564.243    -510.899
  N     -121.081     564.730    -512.069
  N     -119.361     564.307    -510.613
  C     -119.068     563.849    -509.367
  C     -119.932     563.320    -508.434
  C     -121.330     563.190    -508.779
  O     -122.207     562.702    -508.086
  N     -119.287     563.045    -507.246
  C     -118.021     563.363    -507.486
  N     -117.842     563.872    -508.757
  O     -114.541     558.844    -507.437
  O     -116.298     559.796    -505.819
  H     -115.447     566.658    -509.826
  H     -116.388     558.869    -505.543
  H     -122.565     563.704    -510.316
  H     -117.220     563.252    -506.785
  H     -116.834     564.688    -510.353
  H     -116.225     565.879    -507.878
  H     -122.070     564.839    -512.290
  H     -115.422     563.777    -506.947
  H     -120.402     565.176    -512.687
  H     -113.798     563.494    -509.567
  H     -114.292     561.017    -509.120
  H     -113.110     561.807    -508.043
  P     -113.519     565.607    -505.970
  C     -111.505     564.223    -505.122
  O     -111.990     565.503    -505.501
  O     -114.520     565.234    -504.929
  O     -113.615     567.129    -506.445
  H     -114.546     567.444    -506.557
  H     -110.477     564.302    -504.834
  H     -111.593     563.549    -505.948
  H     -112.079     563.854    -504.298

 6  7  8  9  10  11  12  13  14  15  26  29  33  34 0
 6-311+G(2d,p)
 ****
 36  38  39  40  41 0
 6-311+G(2d,p)
 ****
 1  2  3  4  5  16  17  18  19  20  21  22  23  24  25 0
 3-21G
 ****
 27  28  30  31  32  35  37  42  43  44  45  46  47 0
 3-21G
 ****
 48  49 0
 3-21G
 ****


