%nproc=1
%NoSave
%Mem=1900MB
#P OB98/GEN NMR

erre ene a

0 1
  C     -230.644    -215.798     713.339
  O     -230.616    -216.228     714.690
  P     -230.926    -215.292     715.950
  C     -232.226    -217.146     717.316
  O     -231.127    -216.215     717.243
  C     -232.341    -217.755     718.716
  O     -231.199    -218.635     718.953
  C     -232.341    -216.678     719.830
  O     -233.287    -216.918     720.864
  C     -230.875    -216.616     720.226
  O     -230.652    -216.037     721.501
  C     -230.422    -218.064     720.062
  N     -226.222    -220.860     720.858
  C     -227.486    -220.996     721.423
  N     -227.644    -221.982     722.313
  N     -228.491    -220.209     721.124
  C     -228.164    -219.202     720.276
  C     -226.954    -218.965     719.668
  C     -225.861    -219.860     719.956
  O     -224.745    -219.802     719.478
  N     -227.011    -217.865     718.849
  C     -228.245    -217.419     718.979
  N     -228.984    -218.221     719.826
  O     -231.924    -214.201     715.724
  O     -229.504    -214.579     716.250
  H     -231.033    -216.617     722.167
  H     -229.713    -213.695     716.614
  H     -225.496    -221.508     721.106
  H     -228.657    -216.545     718.468
  H     -230.653    -218.681     720.944
  H     -230.336    -215.982     719.490
  H     -226.881    -222.554     722.661
  H     -232.650    -215.697     719.422
  H     -228.482    -221.933     722.880
  H     -233.267    -218.355     718.763
  H     -231.991    -217.938     716.567
  H     -233.159    -216.661     716.986
  P     -234.165    -215.862     721.678
  C     -236.276    -217.242     721.197
  O     -235.496    -216.597     722.181
  O     -234.709    -214.842     720.581
  O     -233.414    -215.131     722.757
  H     -234.379    -213.923     720.779
  H     -237.258    -217.461     721.604
  H     -235.799    -218.177     720.882
  H     -236.391    -216.594     720.320
  H     -230.400    -216.619     712.698
  H     -229.931    -215.012     713.200
  H     -231.623    -215.438     713.100

 3  4  5  6  7  8  9  10  11  12  23  26  30  31 0
 6-311+G(2d,p)
 ****
 33  35  36  37  38 0
 6-311+G(2d,p)
 ****
 1  2  13  14  15  16  17  18  19  20  21  22  24  25 0
 3-21G
 ****
 27  28  29  32  34  39  40  41  42  43  44  45  46  47  48  49 0
 3-21G
 ****


