%nproc=1
%NoSave
%Mem=1900MB
#P OB98/GEN NMR

erre ene a

0 1
  C       48.889     137.380     104.214
  O       48.471     136.003     104.201
  P       49.527     134.872     103.769
  C       49.582     135.162     101.176
  O       50.271     135.289     102.410
  C       50.299     135.930     100.055
  O       51.636     135.387      99.849
  C       49.584     135.887      98.698
  O       49.848     137.134      98.042
  C       50.305     134.758      97.983
  O       50.148     134.797      96.573
  C       51.740     135.008      98.462
  N       52.636     133.862      98.300
  C       53.796     134.041      97.556
  O       54.091     135.081      96.970
  N       54.622     132.950      97.471
  C       54.388     131.717      98.006
  O       55.154     130.770      97.869
  C       53.134     131.579      98.758
  C       52.330     132.639      98.867
  O       48.563     133.688     103.279
  O       50.426     134.385     104.859
  H       50.495     133.958      96.219
  H       48.868     132.841     103.653
  H       55.475     133.065      96.945
  H       52.914     130.618      99.203
  H       51.405     132.562      99.430
  H       52.158     135.870      97.930
  H       49.918     133.796      98.337
  H       48.505     135.723      98.785
  H       50.429     136.969     100.386
  H       48.569     135.560     101.287
  H       49.508     134.101     100.917
  P       48.599     138.027      97.564
  C       48.363     137.750      94.974
  O       47.983     137.325      96.264
  O       49.370     139.300      96.965
  O       47.637     138.379      98.653
  H       50.121     139.051      96.401
  H       49.436     137.958      94.921
  H       47.805     138.648      94.704
  H       48.125     136.958      94.259
  H       48.072     137.998     104.522
  H       49.202     137.667     103.232
  H       49.704     137.499     104.897

 3  4  5  6  7  8  9  10  11  12  13  23  28  29  30  31  32 0
 6-311+G(2d,p)
 ****
 33  34 0
 6-311+G(2d,p)
 ****
 1  2  14  15  16  17  18  19  20  21  22  24  25  26 0
 3-21G
 ****
 27  35  36  37  38  39  40  41  42  43  44  45 0
 3-21G
 ****


