%nproc=1
%NoSave
%Mem=1900MB
#P OB98/GEN NMR

erre ene a

0 1
  C     -239.761    -202.839     783.317
  O     -239.382    -201.723     782.538
  H     -238.890    -203.485     783.462
  H     -240.542    -203.421     782.810
  H     -240.127    -202.515     784.293
  P     -240.521    -200.708     782.056
  C     -239.095    -199.943     780.027
  O     -240.312    -200.542     780.475
  C     -238.953    -200.100     778.519
  O     -238.970    -201.497     778.151
  C     -240.091    -199.447     777.737
  O     -239.937    -198.044     777.701
  C     -239.971    -200.160     776.404
  O     -238.917    -199.594     775.611
  C     -239.604    -201.607     776.848
  N     -240.750    -202.487     776.895
  C     -241.009    -203.222     775.726
  O     -240.285    -203.105     774.748
  N     -242.105    -204.053     775.709
  C     -242.867    -204.159     776.758
  N     -243.937    -204.994     776.666
  C     -242.631    -203.423     778.013
  C     -241.577    -202.605     778.003
  O     -240.634    -199.409     782.801
  O     -241.866    -201.580     782.150
  H     -239.191    -198.672     775.414
  H     -242.270    -201.491     783.043
  H     -243.282    -203.541     778.856
  H     -241.319    -202.029     778.885
  H     -238.857    -202.035     776.171
  H     -240.896    -200.104     775.825
  H     -241.054    -199.726     778.185
  H     -237.982    -199.685     778.214
  H     -244.077    -205.487     775.774
  H     -238.273    -200.463     780.543
  H     -244.544    -205.232     777.442
  H     -239.057    -198.879     780.303
  P     -241.159    -197.076     778.111
  C     -239.988    -195.163     776.826
  O     -241.176    -195.927     776.976
  O     -241.141    -196.594     779.519
  O     -242.447    -197.960     777.748
  H     -242.592    -198.678     778.410
  H     -240.124    -194.440     776.049
  H     -239.176    -195.812     776.571
  H     -239.768    -194.661     777.745

 6  7  8  9  10  11  12  13  14  15  16  26  30  31  32  33  35 0
 6-311+G(2d,p)
 ****
 37  38 0
 6-311+G(2d,p)
 ****
 1  2  3  4  5  17  18  19  20  21  22  23  24  25 0
 3-21G
 ****
 27  28  29  34  36  39  40  41  42  43  44  45  46 0
 3-21G
 ****


