%nproc=1
%NoSave
%Mem=1900MB
#P OB98/GEN NMR

erre ene a

0 1
  C     -233.728     244.162    -229.116
  O     -232.517     244.058    -229.853
  P     -231.573     242.765    -229.718
  C     -231.670     242.592    -232.281
  O     -231.849     241.910    -231.043
  C     -232.649     242.045    -233.322
  O     -233.997     242.242    -232.831
  C     -232.614     242.735    -234.690
  O     -231.617     242.251    -235.573
  C     -233.992     242.361    -235.226
  O     -233.968     241.005    -235.720
  C     -234.863     242.453    -233.975
  N     -239.236     245.014    -234.706
  C     -238.900     243.714    -234.901
  N     -237.708     243.114    -234.698
  C     -236.815     243.989    -234.203
  C     -237.012     245.337    -233.947
  C     -238.290     245.853    -234.219
  N     -238.636     247.167    -233.993
  N     -235.849     245.912    -233.460
  C     -234.986     244.924    -233.414
  N     -235.521     243.744    -233.846
  O     -231.710     242.030    -228.426
  O     -230.096     243.330    -229.959
  H     -233.426     241.009    -236.532
  H     -229.437     242.683    -229.639
  H     -239.698     243.076    -235.277
  H     -233.963     245.017    -233.078
  H     -235.640     241.678    -233.941
  H     -234.312     242.996    -236.058
  H     -232.556     243.827    -234.584
  H     -232.477     240.967    -233.426
  H     -230.644     242.418    -232.622
  H     -239.602     247.414    -234.093
  H     -237.984     247.747    -233.483
  H     -231.810     243.667    -232.134
  P     -230.666     243.341    -236.271
  C     -228.660     242.045    -235.186
  O     -229.282     243.287    -235.466
  O     -231.269     244.695    -236.417
  O     -230.304     242.646    -237.667
  H     -229.752     241.851    -237.606
  H     -227.667     242.237    -234.781
  H     -228.561     241.445    -236.098
  H     -229.250     241.496    -234.443
  H     -234.206     245.091    -229.345
  H     -233.513     244.120    -228.069
  H     -234.377     243.353    -229.380

 3  4  5  6  7  8  9  10  11  12  22  25  29  30  31  32 0
 6-311+G(2d,p)
 ****
 33  36  37 0
 6-311+G(2d,p)
 ****
 1  2  13  14  15  16  17  18  19  20  21  23  24  26 0
 3-21G
 ****
 27  28  34  35  38  39  40  41  42  43  44  45  46  47  48 0
 3-21G
 ****


