%nproc=1
%NoSave
%Mem=1900MB
#P OB98/GEN NMR

erre ene a

0 1
  C       60.375      28.268      92.457
  O       59.540      29.337      92.050
  P       58.079      29.553      92.687
  C       57.172      27.730      91.093
  O       57.298      28.176      92.431
  C       55.883      26.923      90.920
  O       55.898      25.820      91.863
  C       54.598      27.725      91.164
  O       53.605      27.221      90.263
  C       54.247      27.371      92.597
  O       52.875      27.584      92.893
  C       54.693      25.906      92.651
  N       54.923      25.440      94.013
  C       54.073      24.453      94.515
  O       53.147      24.011      93.837
  N       54.290      23.984      95.787
  C       55.218      24.512      96.523
  N       55.431      23.972      97.754
  C       56.067      25.631      96.071
  C       55.881      26.022      94.814
  O       57.365      30.771      92.216
  O       58.326      29.506      94.264
  H       52.341      27.034      92.287
  H       58.595      30.381      94.639
  H       56.807      26.057      96.732
  H       56.474      26.819      94.388
  H       53.951      25.266      92.162
  H       54.838      27.990      93.281
  H       54.729      28.797      90.996
  H       55.878      26.492      89.911
  H       54.951      23.101      97.958
  H       58.024      27.086      90.861
  H       56.315      24.101      98.234
  H       57.193      28.589      90.413
  P       52.645      28.275      89.523
  C       50.552      27.274      90.685
  O       51.311      28.428      90.396
  O       52.125      27.413      88.270
  O       53.287      29.534      89.041
  H       51.876      28.022      87.549
  H       49.689      27.566      91.290
  H       51.147      26.555      91.253
  H       50.191      26.812      89.762
  H       61.295      28.307      91.913
  H       59.884      27.338      92.261
  H       60.576      28.352      93.505

 3  4  5  6  7  8  9  10  11  12  13  23  27  28  29  30  32 0
 6-311+G(2d,p)
 ****
 34  35 0
 6-311+G(2d,p)
 ****
 1  2  14  15  16  17  18  19  20  21  22  24  25  26 0
 3-21G
 ****
 31  33  36  37  38  39  40  41  42  43  44  45  46 0
 3-21G
 ****


