%nproc=1
%NoSave
%Mem=1900MB
#P OB98/GEN NMR

erre ene a

0 1
  C       82.560    -598.415    -170.790
  O       83.892    -598.880    -170.635
  P       84.193    -600.255    -169.859
  C       85.739    -599.077    -168.178
  O       85.650    -600.052    -169.205
  C       86.659    -599.585    -167.057
  O       86.046    -600.756    -166.468
  C       88.061    -600.026    -167.487
  O       89.009    -598.976    -167.589
  C       88.433    -600.931    -166.314
  O       88.864    -600.130    -165.199
  C       87.116    -601.634    -166.015
  N       86.734    -606.685    -165.270
  C       86.800    -605.645    -164.410
  N       86.921    -604.332    -164.688
  C       86.916    -604.117    -166.020
  C       86.851    -605.076    -167.022
  C       86.754    -606.423    -166.605
  N       86.662    -607.476    -167.479
  N       86.897    -604.479    -168.260
  C       86.988    -603.182    -168.007
  N       86.993    -602.923    -166.666
  O       84.015    -601.486    -170.681
  O       83.228    -600.209    -168.587
  H       89.811    -599.923    -165.326
  H       83.138    -601.110    -168.205
  H       86.756    -605.911    -163.355
  H       87.048    -602.410    -168.765
  H       86.964    -601.784    -164.926
  H       89.273    -601.601    -166.551
  H       88.021    -600.628    -168.412
  H       86.719    -598.802    -166.287
  H       84.743    -598.907    -167.771
  H       86.457    -608.376    -167.103
  H       86.510    -607.260    -168.465
  H       86.115    -598.127    -168.585
  P       89.740    -598.793    -169.015
  C       91.764    -597.656    -167.787
  O       90.791    -597.586    -168.817
  O       88.821    -598.650    -170.177
  O       90.682    -600.085    -169.098
  H       91.405    -600.119    -168.456
  H       92.469    -596.829    -167.922
  H       92.326    -598.600    -167.844
  H       91.297    -597.568    -166.816
  H       82.565    -597.491    -171.330
  H       82.121    -598.263    -169.826
  H       81.990    -599.141    -171.331

 3  4  5  6  7  8  9  10  11  12  22  25  29  30  31  32 0
 6-311+G(2d,p)
 ****
 33  36  37 0
 6-311+G(2d,p)
 ****
 1  2  13  14  15  16  17  18  19  20  21  23  24  26 0
 3-21G
 ****
 27  28  34  35  38  39  40  41  42  43  44  45  46  47  48 0
 3-21G
 ****


