%nproc=1
%NoSave
%Mem=1900MB
#P OB98/GEN NMR

erre ene a

0 1
  C     -371.991     619.580     336.065
  O     -371.956     620.885     336.643
  P     -373.330     621.543     337.146
  C     -372.368     623.906     336.731
  O     -373.012     623.033     337.656
  C     -372.023     625.236     337.392
  O     -370.949     625.100     338.362
  C     -371.534     626.291     336.405
  O     -372.604     626.809     335.639
  C     -370.857     627.285     337.333
  O     -371.819     628.175     337.923
  C     -370.252     626.358     338.421
  N     -368.811     626.179     338.290
  C     -368.024     627.247     338.710
  O     -368.550     628.290     339.123
  N     -366.652     627.128     338.635
  C     -366.130     626.037     338.181
  N     -364.771     625.966     338.124
  C     -366.931     624.884     337.709
  C     -368.254     625.029     337.780
  O     -374.139     620.714     338.078
  O     -374.119     621.817     335.772
  H     -372.054     628.816     337.226
  H     -375.078     621.759     335.941
  H     -366.445     623.989     337.338
  H     -368.926     624.235     337.458
  H     -370.457     626.766     339.418
  H     -370.125     627.910     336.804
  H     -370.780     625.842     335.730
  H     -372.911     625.609     337.906
  H     -364.245     626.763     338.442
  H     -373.019     624.071     335.865
  H     -364.275     625.133     337.839
  H     -371.466     623.406     336.346
  P     -372.396     626.950     334.052
  C     -373.088     629.409     333.552
  O     -373.452     628.032     333.517
  O     -372.971     625.568     333.485
  O     -370.982     627.171     333.627
  H     -372.462     625.297     332.696
  H     -373.753     629.971     332.879
  H     -372.053     629.548     333.223
  H     -373.218     629.792     334.571
  H     -371.001     619.288     335.784
  H     -372.619     619.590     335.199
  H     -372.379     618.884     336.779

 3  4  5  6  7  8  9  10  11  12  13  23  27  28  29  30  32 0
 6-311+G(2d,p)
 ****
 34  35 0
 6-311+G(2d,p)
 ****
 1  2  14  15  16  17  18  19  20  21  22  24  25  26 0
 3-21G
 ****
 31  33  36  37  38  39  40  41  42  43  44  45  46 0
 3-21G
 ****


