%nproc=1
%NoSave
%Mem=1900MB
#P OB98/GEN NMR

erre ene a

0 1
  C     -659.715    -651.244    -620.203
  O     -658.623    -651.396    -621.087
  H     -659.709    -650.223    -619.812
  H     -659.623    -651.949    -619.367
  H     -660.653    -651.419    -620.728
  P     -658.409    -652.854    -621.734
  C     -657.398    -651.883    -623.918
  O     -657.206    -652.714    -622.787
  C     -656.302    -652.160    -624.953
  O     -655.017    -651.784    -624.430
  C     -656.177    -653.633    -625.333
  O     -657.177    -654.051    -626.257
  C     -654.774    -653.652    -625.934
  O     -654.795    -653.256    -627.319
  C     -654.033    -652.622    -625.065
  N     -653.135    -653.263    -624.097
  C     -651.781    -653.247    -624.421
  O     -651.336    -652.730    -625.452
  N     -650.954    -653.869    -623.541
  C     -651.334    -654.541    -622.402
  O     -650.547    -655.149    -621.678
  C     -652.786    -654.506    -622.110
  C     -653.601    -653.888    -622.963
  O     -659.705    -653.034    -622.664
  O     -658.257    -653.965    -620.749
  H     -660.342    -653.620    -622.219
  H     -655.383    -653.893    -627.776
  H     -649.966    -653.878    -623.766
  H     -653.110    -655.023    -621.216
  H     -654.657    -653.879    -622.773
  H     -653.419    -651.953    -625.699
  H     -654.336    -654.652    -625.899
  H     -656.181    -654.265    -624.432
  H     -656.500    -651.542    -625.847
  H     -657.330    -650.831    -623.614
  H     -658.391    -652.061    -624.345
  P     -657.689    -655.562    -626.182
  C     -660.187    -654.803    -626.622
  O     -659.075    -655.605    -627.010
  O     -658.150    -655.674    -624.659
  O     -656.683    -656.574    -626.621
  H     -658.534    -654.845    -624.321
  H     -661.002    -654.975    -627.293
  H     -659.910    -653.770    -626.654
  H     -660.484    -655.062    -625.627

 6  7  8  9  10  11  12  13  14  15  16  27  31  32  33  34  35 0
 6-311+G(2d,p)
 ****
 36  37 0
 6-311+G(2d,p)
 ****
 1  2  3  4  5  17  18  19  20  21  22  23  24  25 0
 3-21G
 ****
 26  28  29  30  38  39  40  41  42  43  44  45 0
 3-21G
 ****


