%nproc=1
%NoSave
%Mem=1900MB
#P OB98/GEN NMR

erre ene a

0 1
  C       94.304    -889.981     -25.973
  O       94.120    -891.256     -26.549
  H       93.672    -889.261     -26.499
  H       95.349    -889.672     -26.083
  H       94.025    -889.992     -24.916
  P       94.895    -892.482     -25.865
  C       93.144    -892.997     -24.019
  O       94.441    -892.501     -24.320
  C       93.218    -894.433     -23.505
  O       94.028    -894.456     -22.292
  C       91.854    -895.052     -23.156
  O       91.911    -896.450     -23.481
  C       91.792    -894.928     -21.645
  O       90.878    -895.846     -21.049
  C       93.261    -895.173     -21.294
  N       92.244    -895.943     -16.426
  C       91.792    -896.599     -17.545
  N       90.930    -897.624     -17.348
  N       92.147    -896.279     -18.766
  C       93.040    -895.254     -18.820
  C       93.563    -894.522     -17.778
  C       93.135    -894.870     -16.437
  O       93.495    -894.309     -15.401
  N       94.412    -893.541     -18.245
  C       94.410    -893.698     -19.558
  N       93.587    -894.723     -19.951
  O       96.407    -891.949     -25.810
  O       94.784    -893.789     -26.577
  H       90.856    -895.662     -20.090
  H       96.901    -892.255     -26.595
  H       91.926    -896.214     -15.514
  H       94.970    -893.101     -20.260
  H       93.531    -896.232     -21.355
  H       91.490    -893.901     -21.363
  H       90.642    -897.954     -16.441
  H       91.004    -894.593     -23.668
  H       90.618    -898.149     -18.163
  H       93.746    -895.042     -24.250
  H       92.531    -892.973     -24.929
  H       92.682    -892.355     -23.261
  P       90.657    -897.097     -24.257
  C       91.492    -896.874     -26.714
  O       90.580    -896.434     -25.709
  O       89.395    -896.443     -23.505
  O       90.609    -898.587     -24.211
  H       88.635    -897.042     -23.558
  H       91.310    -896.336     -27.621
  H       91.354    -897.921     -26.887
  H       92.495    -896.695     -26.388

 6  7  8  9  10  11  12  13  14  15  26  29  33  34 0
 6-311+G(2d,p)
 ****
 36  38  39  40  41 0
 6-311+G(2d,p)
 ****
 1  2  3  4  5  16  17  18  19  20  21  22  23  24  25 0
 3-21G
 ****
 27  28  30  31  32  35  37  42  43  44  45  46  47 0
 3-21G
 ****
 48  49 0
 3-21G
 ****


