%nproc=1
%NoSave
%Mem=1900MB
#P OB98/GEN NMR

erre ene a

0 1
  C      211.886     -87.198      -0.795
  O      210.872     -86.271      -0.398
  P      209.386     -86.811      -0.120
  C      208.495     -86.824      -2.544
  O      208.883     -87.611      -1.423
  C      207.709     -87.667      -3.559
  O      207.016     -86.807      -4.511
  C      208.617     -88.606      -4.378
  O      207.925     -89.820      -4.700
  C      208.825     -87.831      -5.664
  O      209.230     -88.686      -6.733
  C      207.449     -87.186      -5.836
  N      208.837     -85.404     -10.443
  C      208.890     -86.649      -9.903
  N      208.483     -87.052      -8.676
  C      207.959     -86.022      -7.989
  C      207.824     -84.703      -8.407
  C      208.302     -84.401      -9.695
  N      208.277     -83.136     -10.231
  N      207.250     -83.926      -7.423
  C      207.079     -84.751      -6.407
  N      207.461     -86.035      -6.711
  O      208.420     -85.810       0.417
  O      209.631     -87.997       0.932
  H      209.206     -88.159      -7.551
  H      208.936     -87.961       1.621
  H      209.323     -87.414     -10.538
  H      206.695     -84.470      -5.435
  H      206.718     -87.896      -6.234
  H      209.606     -87.070      -5.517
  H      209.566     -88.856      -3.884
  H      206.944     -88.249      -3.024
  H      209.381     -86.398      -3.016
  H      208.743     -82.997     -11.115
  H      208.023     -82.361      -9.636
  H      207.905     -85.963      -2.197
  P      208.347     -91.123      -3.846
  C      210.452     -91.874      -5.211
  O      209.934     -91.280      -4.040
  O      207.521     -92.332      -4.153
  O      208.180     -90.595      -2.343
  H      208.626     -89.750      -2.153
  H      211.536     -91.771      -5.213
  H      210.053     -91.386      -6.108
  H      210.203     -92.942      -5.232
  H      212.809     -86.677      -0.938
  H      211.598     -87.671      -1.710
  H      212.009     -87.940      -0.034

 3  4  5  6  7  8  9  10  11  12  22  25  29  30  31  32 0
 6-311+G(2d,p)
 ****
 33  36  37 0
 6-311+G(2d,p)
 ****
 1  2  13  14  15  16  17  18  19  20  21  23  24  26 0
 3-21G
 ****
 27  28  34  35  38  39  40  41  42  43  44  45  46  47  48 0
 3-21G
 ****


