%nproc=1
%NoSave
%Mem=1900MB
#P OB98/GEN NMR

erre ene a

0 1
  C      260.142       7.818     -59.294
  O      259.974       6.785     -58.345
  H      259.157       8.216     -59.552
  H      260.611       7.435     -60.204
  H      260.745       8.626     -58.874
  P      261.269       5.953     -57.888
  C      262.101       7.897     -56.390
  O      262.356       7.083     -57.524
  C      263.389       8.580     -55.933
  O      263.177       9.320     -54.712
  C      264.539       7.630     -55.614
  O      265.150       7.076     -56.769
  C      265.463       8.576     -54.866
  O      266.128       9.442     -55.803
  C      264.449       9.369     -54.004
  N      264.303       8.829     -52.653
  C      264.971       9.514     -51.631
  O      265.640      10.517     -51.880
  N      264.895       9.025     -50.348
  C      264.231       7.938     -50.111
  N      264.228       7.470     -48.832
  C      263.500       7.196     -51.154
  C      263.581       7.686     -52.390
  O      261.741       4.893     -58.831
  O      260.891       5.393     -56.437
  H      266.788       9.954     -55.302
  H      261.658       4.860     -56.116
  H      262.966       6.290     -50.905
  H      263.083       7.187     -53.214
  H      264.737      10.424     -53.935
  H      266.238       8.061     -54.292
  H      264.217       6.841     -54.926
  H      263.669       9.308     -56.705
  H      264.775       7.981     -48.152
  H      261.691       7.260     -55.599
  H      263.980       6.509     -48.622
  H      261.370       8.671     -56.638
  P      266.448       6.152     -56.562
  C      265.024       4.035     -56.034
  O      266.008       4.952     -55.589
  O      267.388       7.061     -55.642
  O      267.129       5.703     -57.816
  H      268.019       7.574     -56.183
  H      264.848       3.304     -55.273
  H      265.366       3.549     -56.923
  H      264.115       4.560     -56.242

 6  7  8  9  10  11  12  13  14  15  16  26  30  31  32  33  35 0
 6-311+G(2d,p)
 ****
 37  38 0
 6-311+G(2d,p)
 ****
 1  2  3  4  5  17  18  19  20  21  22  23  24  25 0
 3-21G
 ****
 27  28  29  34  36  39  40  41  42  43  44  45  46 0
 3-21G
 ****


