%nproc=1
%NoSave
%Mem=1900MB
#P OB98/GEN NMR

erre ene a

0 1
  C       52.976     365.656     585.365
  O       51.762     365.502     586.066
  H       53.086     364.820     584.667
  H       53.812     365.637     586.070
  H       52.998     366.590     584.800
  P       51.182     366.752     586.881
  C       51.437     367.408     589.369
  O       52.081     366.907     588.209
  C       52.440     368.026     590.339
  O       53.396     367.024     590.759
  C       53.252     369.139     589.643
  O       53.694     370.135     590.552
  C       54.457     368.385     589.109
  O       55.571     369.234     588.844
  C       54.688     367.362     590.216
  N       59.123     364.892     589.727
  C       58.889     366.196     590.138
  N       59.978     366.947     590.438
  N       57.694     366.716     590.235
  C       56.703     365.878     589.833
  C       56.817     364.583     589.380
  C       58.146     364.002     589.323
  O       58.418     362.862     588.960
  N       55.588     364.052     589.047
  C       54.736     365.034     589.289
  N       55.365     366.159     589.778
  O       49.792     366.209     587.474
  O       50.992     368.015     586.095
  H       56.260     368.690     588.416
  H       49.181     366.951     587.644
  H       60.067     364.539     589.694
  H       53.669     364.979     589.133
  H       55.296     367.802     591.027
  H       54.175     367.914     588.150
  H       60.913     366.641     590.221
  H       52.684     369.608     588.837
  H       59.846     367.961     590.453
  H       51.940     368.386     591.242
  H       50.924     366.568     589.845
  H       50.667     368.137     589.086
  P       53.267     371.659     590.256
  C       54.151     373.552     588.656
  O       54.109     372.170     588.993
  O       53.868     372.476     591.489
  O       51.785     371.841     590.124
  H       53.171     372.725     592.108
  H       54.761     373.689     587.788
  H       54.564     374.106     589.473
  H       53.160     373.900     588.454

 6  7  8  9  10  11  12  13  14  15  26  29  33  34 0
 6-311+G(2d,p)
 ****
 36  38  39  40  41 0
 6-311+G(2d,p)
 ****
 1  2  3  4  5  16  17  18  19  20  21  22  23  24  25 0
 3-21G
 ****
 27  28  30  31  32  35  37  42  43  44  45  46  47 0
 3-21G
 ****
 48  49 0
 3-21G
 ****


