%nproc=1
%NoSave
%Mem=1900MB
#P OB98/GEN NMR

erre ene a

0 1
  C      281.516     -45.899      19.503
  O      281.355     -45.051      20.628
  P      279.860     -44.736      21.124
  C      279.896     -46.340      23.175
  O      279.349     -46.043      21.903
  C      278.941     -45.907      24.287
  O      279.419     -46.446      25.548
  C      278.806     -44.390      24.465
  O      277.466     -44.136      24.905
  C      279.777     -44.090      25.593
  O      279.490     -42.863      26.256
  C      279.603     -45.337      26.454
  N      281.165     -46.366      31.153
  C      279.894     -46.089      30.684
  N      278.894     -46.154      31.589
  N      279.628     -45.777      29.442
  C      280.726     -45.769      28.650
  C      282.038     -45.986      29.003
  C      282.313     -46.367      30.369
  O      283.410     -46.705      30.808
  N      282.881     -45.801      27.940
  C      282.074     -45.551      26.930
  N      280.755     -45.567      27.301
  O      279.023     -44.755      19.762
  O      279.687     -43.462      21.888
  H      280.119     -42.770      27.000
  H      278.935     -43.854      19.391
  H      281.307     -46.618      32.117
  H      282.384     -45.359      25.913
  H      278.720     -45.278      27.107
  H      280.798     -44.027      25.195
  H      279.023     -46.418      32.556
  H      279.024     -43.822      23.557
  H      277.949     -45.987      31.267
  H      277.957     -46.357      24.093
  H      280.838     -45.795      23.294
  H      280.108     -47.413      23.242
  P      276.865     -42.668      24.671
  C      276.707     -42.617      22.086
  O      277.376     -42.158      23.243
  O      277.704     -41.772      25.703
  O      275.399     -42.543      24.929
  H      277.150     -41.038      26.025
  H      276.886     -41.909      21.272
  H      275.628     -42.698      22.252
  H      277.103     -43.594      21.798
  H      282.558     -46.017      19.291
  H      281.027     -45.465      18.656
  H      281.084     -46.855      19.713

 3  4  5  6  7  8  9  10  11  12  23  26  30  31 0
 6-311+G(2d,p)
 ****
 33  35  36  37  38 0
 6-311+G(2d,p)
 ****
 1  2  13  14  15  16  17  18  19  20  21  22  24  25 0
 3-21G
 ****
 27  28  29  32  34  39  40  41  42  43  44  45  46  47  48  49 0
 3-21G
 ****


