%nproc=1
%NoSave
%Mem=1900MB
#P OB98/GEN NMR

erre ene a

0 1
  C      -69.793     -55.152      23.139
  O      -69.303     -56.469      22.900
  P      -68.832     -57.349      24.153
  C      -70.458     -58.579      25.839
  O      -69.966     -58.407      24.529
  C      -71.121     -59.962      25.954
  O      -72.256     -60.049      25.067
  C      -70.183     -61.111      25.595
  O      -69.412     -61.534      26.705
  C      -71.153     -62.162      25.096
  O      -71.801     -62.813      26.204
  C      -72.165     -61.292      24.313
  N      -71.861     -60.968      22.903
  C      -72.067     -61.925      21.912
  O      -72.492     -63.058      22.123
  N      -71.776     -61.537      20.631
  C      -71.473     -60.272      20.221
  O      -71.281     -59.969      19.051
  C      -71.415     -59.265      21.285
  C      -71.594     -59.652      22.551
  O      -68.853     -56.316      25.371
  O      -67.490     -57.991      23.985
  H      -72.270     -62.125      26.709
  H      -67.951     -56.180      25.717
  H      -71.851     -62.238      19.911
  H      -71.224     -58.239      21.000
  H      -71.551     -58.912      23.347
  H      -73.159     -61.754      24.322
  H      -70.639     -62.945      24.544
  H      -69.538     -60.825      24.759
  H      -71.484     -60.086      26.982
  H      -71.180     -57.799      26.090
  H      -69.635     -58.492      26.555
  P      -67.932     -62.102      26.478
  C      -66.242     -61.130      24.812
  O      -67.075     -60.863      25.923
  O      -67.828     -63.364      25.690
  O      -67.365     -62.274      27.968
  H      -67.478     -63.202      28.278
  H      -65.843     -60.183      24.438
  H      -66.811     -61.615      24.014
  H      -65.409     -61.769      25.117
  H      -70.065     -54.698      22.209
  H      -69.031     -54.568      23.611
  H      -70.651     -55.201      23.776

 3  4  5  6  7  8  9  10  11  12  13  23  28  29  30  31  32 0
 6-311+G(2d,p)
 ****
 33  34 0
 6-311+G(2d,p)
 ****
 1  2  14  15  16  17  18  19  20  21  22  24  25  26  27 0
 3-21G
 ****
 35  36  37  38  39  40  41  42  43  44  45 0
 3-21G
 ****


