%nproc=1
%NoSave
%Mem=1900MB
#P OB98/GEN NMR

erre ene a

0 1
  C     -360.224     410.315     -77.189
  O     -360.783     410.176     -78.475
  H     -359.517     409.498     -77.022
  H     -361.010     410.257     -76.429
  H     -359.688     411.267     -77.102
  P     -361.738     411.358     -79.000
  C     -363.894     409.974     -78.564
  O     -363.158     411.156     -78.280
  C     -365.234     409.987     -77.834
  O     -364.992     409.837     -76.413
  C     -366.034     411.284     -78.041
  O     -367.424     410.951     -78.143
  C     -365.794     412.064     -76.758
  O     -366.842     412.994     -76.473
  C     -365.647     410.929     -75.730
  N     -364.889     411.367     -74.558
  C     -365.443     412.410     -73.809
  O     -366.518     412.922     -74.148
  N     -364.748     412.885     -72.727
  C     -363.564     412.430     -72.477
  N     -362.918     412.971     -71.405
  C     -362.909     411.378     -73.280
  C     -363.626     410.892     -74.291
  O     -362.031     410.945     -80.520
  O     -361.172     412.732     -78.886
  H     -367.701     412.534     -76.588
  H     -362.155     411.732     -81.080
  H     -361.906     411.051     -73.038
  H     -363.226     410.121     -74.938
  H     -366.632     410.578     -75.401
  H     -364.853     412.624     -76.839
  H     -365.724     411.844     -78.926
  H     -365.816     409.120     -78.160
  H     -363.388     413.699     -70.881
  H     -363.312     409.111     -78.232
  H     -361.969     412.719     -71.139
  H     -364.047     409.893     -79.646
  P     -367.920     410.363     -79.554
  C     -369.819     411.999     -80.258
  O     -368.469     411.588     -80.438
  O     -369.244     409.550     -79.164
  O     -366.914     409.496     -80.230
  H     -369.077     408.589     -79.235
  H     -370.033     412.818     -80.912
  H     -369.966     412.305     -79.243
  H     -370.473     411.183     -80.483

 6  7  8  9  10  11  12  13  14  15  16  26  30  31  32  33  35 0
 6-311+G(2d,p)
 ****
 37  38 0
 6-311+G(2d,p)
 ****
 1  2  3  4  5  17  18  19  20  21  22  23  24  25 0
 3-21G
 ****
 27  28  29  34  36  39  40  41  42  43  44  45  46 0
 3-21G
 ****


