%nproc=1
%NoSave
%Mem=1900MB
#P OB98/GEN NMR

erre ene a

0 1
  C      -26.122     -14.616      51.387
  O      -26.843     -13.396      51.446
  P      -27.771     -13.056      52.708
  C      -29.581     -14.342      51.413
  O      -28.982     -14.111      52.682
  C      -30.414     -15.623      51.436
  O      -29.578     -16.715      51.886
  C      -31.615     -15.549      52.373
  O      -32.700     -16.277      51.794
  C      -31.161     -16.284      53.624
  O      -32.281     -16.826      54.345
  C      -30.205     -17.323      53.032
  N      -28.992     -20.460      56.912
  C      -30.115     -20.340      56.172
  N      -30.379     -19.468      55.175
  C      -29.307     -18.698      54.927
  C      -28.091     -18.709      55.594
  C      -27.950     -19.642      56.636
  N      -26.797     -19.771      57.381
  N      -27.241     -17.748      55.077
  C      -27.926     -17.187      54.105
  N      -29.175     -17.733      53.968
  O      -28.193     -11.632      52.816
  O      -26.914     -13.521      53.975
  H      -31.976     -17.003      55.258
  H      -27.036     -12.895      54.715
  H      -30.915     -21.036      56.418
  H      -27.572     -16.380      53.483
  H      -30.741     -18.218      52.692
  H      -30.638     -15.587      54.290
  H      -31.926     -14.521      52.587
  H      -30.734     -15.852      50.413
  H      -28.785     -14.445      50.669
  H      -26.745     -20.547      58.021
  H      -25.969     -19.286      57.063
  H      -30.201     -13.482      51.141
  P      -34.177     -15.727      52.132
  C      -34.418     -17.479      54.042
  O      -34.417     -16.121      53.665
  O      -35.189     -16.197      51.139
  O      -33.925     -14.146      52.136
  H      -32.987     -13.930      52.336
  H      -34.635     -17.545      55.112
  H      -33.435     -17.923      53.861
  H      -35.185     -18.030      53.491
  H      -25.566     -14.658      50.474
  H      -26.807     -15.437      51.425
  H      -25.450     -14.673      52.217

 3  4  5  6  7  8  9  10  11  12  22  25  29  30  31  32 0
 6-311+G(2d,p)
 ****
 33  36  37 0
 6-311+G(2d,p)
 ****
 1  2  13  14  15  16  17  18  19  20  21  23  24  26 0
 3-21G
 ****
 27  28  34  35  38  39  40  41  42  43  44  45  46  47  48 0
 3-21G
 ****


