%nproc=1
%NoSave
%Mem=1900MB
#P OB98/GEN NMR

erre ene a

0 1
  C       32.780     305.872    -300.059
  O       32.053     306.917    -300.675
  H       32.275     304.925    -300.264
  H       32.819     306.026    -298.979
  H       33.795     305.825    -300.466
  P       32.646     308.400    -300.512
  C       33.655     309.701    -298.499
  O       32.792     308.658    -298.936
  C       33.407     309.987    -297.023
  O       33.642     308.788    -296.245
  C       34.340     311.039    -296.437
  O       33.945     312.356    -296.772
  C       34.229     310.732    -294.950
  O       33.072     311.350    -294.371
  C       34.082     309.207    -294.934
  N       36.745     307.104    -291.118
  C       35.492     307.608    -291.173
  N       34.849     308.141    -292.236
  C       35.627     308.094    -293.331
  C       36.922     307.611    -293.424
  C       37.484     307.093    -292.249
  N       38.772     306.602    -292.182
  N       37.407     307.768    -294.710
  C       36.421     308.335    -295.376
  N       35.326     308.546    -294.588
  O       31.417     309.330    -300.940
  O       33.867     308.685    -301.321
  H       32.325     311.142    -294.967
  H       31.540     309.631    -301.861
  H       34.934     307.591    -290.243
  H       36.459     308.611    -296.426
  H       33.325     308.869    -294.215
  H       35.103     311.097    -294.412
  H       35.372     310.850    -296.757
  H       32.357     310.277    -296.892
  H       33.452     310.606    -299.083
  H       34.692     309.396    -298.667
  H       39.134     306.311    -291.290
  H       39.372     306.691    -292.994
  P       34.932     313.556    -296.373
  C       36.094     314.370    -294.187
  O       35.253     313.406    -294.809
  O       34.006     314.858    -296.451
  O       36.141     313.678    -297.242
  H       34.527     315.617    -296.777
  H       36.208     314.129    -293.151
  H       35.654     315.341    -294.281
  H       37.053     314.366    -294.661

 6  7  8  9  10  11  12  13  14  15  25  28  32  33  34  35 0
 6-311+G(2d,p)
 ****
 36  37  40 0
 6-311+G(2d,p)
 ****
 1  2  3  4  5  16  17  18  19  20  21  22  23  24 0
 3-21G
 ****
 26  27  29  30  31  38  39 41  42  43  44  45  46  47  48 0
 3-21G
 ****


