%nproc=1
%NoSave
%Mem=1900MB
#P OB98/GEN NMR

erre ene a

0 1
  C       32.294     245.643    -189.986
  O       30.981     245.379    -190.465
  P       29.781     245.330    -189.401
  C       28.976     243.660    -187.587
  O       29.866     243.902    -188.667
  C       29.647     242.837    -186.489
  O       30.795     243.573    -185.983
  C       28.747     242.520    -185.289
  O       29.143     241.235    -184.790
  C       29.134     243.584    -184.278
  O       28.790     243.214    -182.945
  C       30.633     243.688    -184.551
  N       31.927     246.422    -180.426
  C       31.415     245.179    -180.555
  N       31.097     244.518    -181.688
  C       31.358     245.274    -182.769
  C       31.847     246.570    -182.790
  C       32.143     247.153    -181.545
  N       32.674     248.415    -181.410
  N       31.953     247.028    -184.088
  C       31.537     246.025    -184.837
  N       31.190     244.939    -184.083
  O       28.490     245.193    -190.337
  O       29.679     246.512    -188.501
  H       29.109     242.305    -182.791
  H       27.958     246.013    -190.291
  H       31.244     244.641    -179.628
  H       31.465     246.040    -185.915
  H       31.196     242.870    -184.081
  H       28.621     244.523    -184.513
  H       27.678     242.525    -185.518
  H       30.031     241.913    -186.936
  H       28.113     243.102    -187.962
  H       32.985     248.707    -180.499
  H       33.015     248.892    -182.240
  H       28.621     244.615    -187.182
  P       27.994     240.326    -184.138
  C       26.502     241.043    -182.142
  O       27.812     240.824    -182.628
  O       28.699     238.895    -183.987
  O       26.746     240.241    -184.956
  H       28.027     238.188    -184.024
  H       26.473     240.796    -181.077
  H       25.761     240.431    -182.669
  H       26.245     242.101    -182.268
  H       32.980     245.644    -190.807
  H       32.577     244.885    -189.286
  H       32.313     246.599    -189.505

 3  4  5  6  7  8  9  10  11  12  22  25  29  30  31  32 0
 6-311+G(2d,p)
 ****
 33  36  37 0
 6-311+G(2d,p)
 ****
 1  2  13  14  15  16  17  18  19  20  21  23  24  26 0
 3-21G
 ****
 27  28  34  35  38  39  40  41  42  43  44  45  46  47  48 0
 3-21G
 ****


