%nproc=1
%NoSave
%Mem=1900MB
#P OB98/GEN NMR

erre ene a

0 1
  C      522.437    -123.447    -657.625
  O      522.471    -124.867    -657.508
  P      523.795    -125.742    -657.342
  C      523.112    -126.539    -654.929
  O      524.081    -125.939    -655.781
  C      523.549    -126.461    -653.456
  O      524.879    -127.056    -653.332
  C      523.649    -125.018    -652.949
  O      523.130    -124.835    -651.633
  C      525.112    -124.682    -653.167
  O      525.567    -123.587    -652.393
  C      525.792    -126.021    -652.892
  N      530.748    -124.800    -652.915
  C      529.730    -124.307    -652.128
  N      530.063    -123.347    -651.241
  N      528.489    -124.707    -652.217
  C      528.275    -125.605    -653.199
  C      529.197    -126.163    -654.057
  C      530.583    -125.753    -653.914
  O      531.528    -126.177    -654.578
  N      528.614    -127.054    -654.912
  C      527.329    -127.026    -654.593
  N      527.083    -126.161    -653.546
  O      524.954    -125.340    -658.195
  O      523.340    -127.217    -657.811
  H      524.989    -122.823    -652.569
  H      524.125    -127.632    -658.217
  H      531.695    -124.477    -652.790
  H      526.550    -127.612    -655.069
  H      525.979    -126.180    -651.829
  H      525.240    -124.405    -654.220
  H      530.972    -122.915    -651.200
  H      523.031    -124.344    -653.561
  H      529.282    -122.839    -650.826
  H      522.854    -127.056    -652.850
  H      523.041    -127.580    -655.238
  H      522.135    -126.080    -655.079
  P      521.713    -124.257    -651.189
  C      521.734    -125.906    -649.218
  O      520.977    -125.366    -650.286
  O      520.832    -124.245    -652.528
  O      521.749    -122.894    -650.581
  H      520.566    -123.331    -652.734
  H      521.229    -126.809    -648.861
  H      521.784    -125.184    -648.406
  H      522.735    -126.165    -649.552
  H      521.423    -123.122    -657.724
  H      522.994    -123.147    -658.488
  H      522.869    -123.007    -656.751

 3  4  5  6  7  8  9  10  11  12  23  26  30  31 0
 6-311+G(2d,p)
 ****
 33  35  36  37  38 0
 6-311+G(2d,p)
 ****
 1  2  13  14  15  16  17  18  19  20  21  22  24  25 0
 3-21G
 ****
 27  28  29  32  34  39  40  41  42  43  44  45  46  47  48  49 0
 3-21G
 ****


