%nproc=1
%NoSave
%Mem=1900MB
#P OB98/GEN NMR

erre ene a

0 1
  C     -212.973     -60.288     -41.107
  O     -211.960     -60.589     -40.169
  H     -213.688     -61.115     -41.125
  H     -212.552     -60.168     -42.108
  H     -213.503     -59.378     -40.812
  P     -210.720     -59.577     -40.037
  C     -209.574     -60.688     -42.081
  O     -210.116     -59.499     -41.527
  C     -208.208     -60.408     -42.700
  O     -208.323     -59.517     -43.830
  C     -207.208     -59.726     -41.768
  O     -206.673     -60.593     -40.783
  C     -206.165     -59.281     -42.782
  O     -205.374     -60.411     -43.186
  C     -207.065     -58.794     -43.946
  N     -207.301     -57.351     -43.918
  C     -206.775     -56.609     -44.983
  O     -206.149     -57.166     -45.884
  N     -206.937     -55.243     -44.984
  C     -207.554     -54.667     -43.999
  N     -207.646     -53.308     -44.024
  C     -208.139     -55.411     -42.866
  C     -207.974     -56.733     -42.885
  O     -209.729     -59.884     -38.961
  O     -211.397     -58.135     -39.887
  H     -204.585     -60.060     -43.638
  H     -210.670     -57.473     -39.791
  H     -208.635     -54.881     -42.066
  H     -208.360     -57.347     -42.078
  H     -206.629     -59.062     -44.914
  H     -205.479     -58.523     -42.391
  H     -207.651     -58.835     -41.309
  H     -207.816     -61.360     -43.083
  H     -207.198     -52.829     -44.794
  H     -210.276     -61.065     -42.831
  H     -207.855     -52.777     -43.185
  H     -209.449     -61.445     -41.300
  P     -206.482     -60.012     -39.296
  C     -204.205     -59.027     -40.092
  O     -205.426     -58.808     -39.405
  O     -205.660     -61.173     -38.564
  O     -207.742     -59.656     -38.573
  H     -206.258     -61.785     -38.093
  H     -203.620     -58.132     -40.073
  H     -204.410     -59.298     -41.107
  H     -203.664     -59.817     -39.615

 6  7  8  9  10  11  12  13  14  15  16  26  30  31  32  33  35 0
 6-311+G(2d,p)
 ****
 37  38 0
 6-311+G(2d,p)
 ****
 1  2  3  4  5  17  18  19  20  21  22  23  24  25 0
 3-21G
 ****
 27  28  29  34  36  39  40  41  42  43  44  45  46 0
 3-21G
 ****


