%nproc=1
%NoSave
%Mem=1900MB
#P OB98/GEN NMR

erre ene a

0 1
  C      127.659    -814.733      44.397
  O      127.966    -815.970      43.774
  H      128.510    -814.047      44.320
  H      126.799    -814.287      43.888
  H      127.402    -814.895      45.449
  P      129.272    -816.728      44.318
  C      130.145    -816.635      41.874
  O      130.440    -816.438      43.251
  C      130.719    -815.492      41.044
  O      130.104    -814.241      41.434
  C      132.217    -815.271      41.209
  O      132.981    -816.206      40.452
  C      132.358    -813.857      40.660
  O      132.387    -813.904      39.218
  C      131.065    -813.185      41.136
  N      131.007    -808.405      43.018
  C      130.795    -808.884      41.763
  N      130.835    -810.162      41.333
  C      131.121    -811.005      42.358
  C      131.363    -810.653      43.681
  C      131.303    -809.284      43.997
  N      131.544    -808.807      45.271
  N      131.609    -811.777      44.437
  C      131.515    -812.785      43.599
  N      131.232    -812.365      42.321
  O      128.926    -818.278      44.071
  O      129.621    -816.464      45.744
  H      133.245    -814.308      38.966
  H      129.311    -818.805      44.802
  H      130.551    -808.141      41.007
  H      131.643    -813.825      43.860
  H      130.623    -812.567      40.356
  H      133.268    -813.360      40.988
  H      132.506    -815.276      42.266
  H      130.467    -815.673      39.991
  H      129.060    -816.668      41.735
  H      131.293    -807.853      45.478
  H      131.764    -809.477      46.004
  H      130.574    -817.585      41.552
  P      133.692    -817.405      41.256
  C      135.917    -816.547      40.232
  O      135.222    -816.969      41.411
  O      133.743    -818.575      40.173
  O      132.995    -817.832      42.505
  H      133.776    -819.445      40.624
  H      136.924    -816.287      40.485
  H      135.424    -815.695      39.813
  H      135.923    -817.343      39.517

 6  7  8  9  10  11  12  13  14  15  25  28  32  33  34  35 0
 6-311+G(2d,p)
 ****
 36  39  40 0
 6-311+G(2d,p)
 ****
 1  2  3  4  5  16  17  18  19  20  21  22  23  24 0
 3-21G
 ****
 26  27  29  30  31  37  38  41  42  43  44  45  46  47  48 0
 3-21G
 ****


