%nproc=1
%NoSave
%Mem=1900MB
#P OB98/GEN NMR

erre ene a

0 1
  C       76.177     576.418     -28.935
  O       75.116     575.537     -28.640
  H       75.770     577.418     -29.112
  H       76.692     576.083     -29.841
  H       76.892     576.475     -28.109
  P       75.441     574.155     -27.908
  C       77.561     572.718     -28.249
  O       76.413     573.297     -28.857
  C       78.499     572.096     -29.284
  O       78.652     572.996     -30.406
  C       79.899     571.846     -28.727
  O       80.055     570.592     -28.071
  C       80.757     571.909     -29.991
  O       80.845     570.625     -30.634
  C       79.999     572.902     -30.883
  N       83.636     575.913     -32.847
  C       83.482     574.546     -32.973
  N       84.434     573.907     -33.683
  N       82.492     573.882     -32.437
  C       81.670     574.645     -31.673
  C       81.737     576.002     -31.459
  C       82.793     576.746     -32.110
  O       82.965     577.957     -32.044
  N       80.754     576.423     -30.591
  C       80.156     575.306     -30.221
  N       80.624     574.217     -30.914
  O       74.059     573.346     -28.005
  O       75.877     574.273     -26.477
  H       81.266     570.753     -31.512
  H       73.963     572.767     -27.228
  H       84.401     576.378     -33.297
  H       79.350     575.239     -29.495
  H       79.946     572.551     -31.921
  H       81.781     572.216     -29.754
  H       85.267     574.360     -34.043
  H       80.211     572.659     -28.063
  H       84.465     572.890     -33.642
  H       78.044     571.174     -29.673
  H       77.193     571.955     -27.565
  H       78.089     573.468     -27.652
  P       81.231     570.368     -27.015
  C       83.815     569.988     -27.285
  O       82.505     569.806     -27.785
  O       80.715     569.099     -26.173
  O       81.534     571.538     -26.132
  H       80.308     569.390     -25.337
  H       84.518     569.535     -27.953
  H       83.895     569.532     -26.320
  H       84.024     571.034     -27.204

 6  7  8  9  10  11  12  13  14  15  26  29  33  34 0
 6-311+G(2d,p)
 ****
 36  38  39  40  41 0
 6-311+G(2d,p)
 ****
 1  2  3  4  5  16  17  18  19  20  21  22  23  24  25 0
 3-21G
 ****
 27  28  30  31  32  35  37  42  43  44  45  46  47 0
 3-21G
 ****
 48  49 0
 3-21G
 ****


