%nproc=1
%NoSave
%Mem=1900MB
#P OB98/GEN NMR

erre ene a

0 1
  C      202.191     275.917     -95.871
  O      202.309     276.174     -97.256
  H      201.587     276.709     -95.418
  H      203.173     275.907     -95.390
  H      201.690     274.959     -95.709
  P      203.358     275.301     -98.100
  C      202.176     276.256    -100.187
  O      203.423     275.990     -99.549
  C      202.381     277.019    -101.499
  O      203.138     276.217    -102.426
  C      201.087     277.349    -102.224
  O      200.291     278.318    -101.571
  C      201.563     277.602    -103.646
  O      201.998     278.940    -103.868
  C      202.769     276.636    -103.755
  N      202.480     275.501    -104.625
  C      202.146     275.814    -105.935
  O      202.065     276.963    -106.366
  N      201.858     274.751    -106.749
  C      201.824     273.441    -106.368
  O      201.521     272.533    -107.136
  C      202.164     273.174    -104.963
  C      202.471     274.199    -104.166
  O      203.093     273.827     -98.141
  O      204.771     275.680     -97.456
  H      202.550     279.194    -103.102
  H      205.466     275.021     -97.703
  H      201.625     274.955    -107.708
  H      202.144     272.147    -104.625
  H      202.721     274.028    -103.119
  H      203.638     277.162    -104.169
  H      200.775     277.399    -104.377
  H      200.477     276.438    -102.262
  H      202.959     277.925    -101.283
  H      201.578     276.867     -99.505
  H      201.649     275.312    -100.370
  P      198.693     278.294    -101.586
  C      198.828     279.326     -99.202
  O      198.167     279.320    -100.461
  O      198.043     276.955    -101.693
  O      198.377     279.095    -102.952
  H      197.570     278.705    -103.338
  H      198.372     280.053     -98.563
  H      199.860     279.572     -99.342
  H      198.750     278.358     -98.754

 6  7  8  9  10  11  12  13  14  15  16  26  31  32  33  34  35 0
 6-311+G(2d,p)
 ****
 36  37 0
 6-311+G(2d,p)
 ****
 1  2  3  4  5  17  18  19  20  21  22  23  24  25 0
 3-21G
 ****
 27  28  29  30  38  39  40  41  42  43  44  45 0
 3-21G
 ****


