%nproc=1
%NoSave
%Mem=1900MB
#P OB98/GEN NMR

erre ene a

0 1
  C      -41.728      94.974    -547.983
  O      -40.529      95.709    -547.828
  H      -41.962      94.477    -547.037
  H      -41.614      94.211    -548.757
  H      -42.555      95.642    -548.240
  P      -39.973      96.527    -549.088
  C      -41.123      98.826    -548.840
  O      -41.130      97.557    -549.488
  C      -41.038      99.938    -549.879
  O      -39.866      99.774    -550.702
  C      -42.230      99.997    -550.834
  O      -43.323     100.660    -550.220
  C      -41.624     100.776    -551.987
  O      -41.556     102.176    -551.647
  C      -40.208     100.175    -552.056
  N      -40.116      98.574    -556.866
  C      -40.331      99.842    -556.353
  N      -40.604     100.811    -557.256
  N      -40.302     100.129    -555.075
  C      -40.089      99.044    -554.296
  C      -39.882      97.743    -554.685
  C      -39.854      97.448    -556.097
  O      -39.654      96.343    -556.589
  N      -39.768      96.908    -553.595
  C      -39.871      97.715    -552.560
  N      -40.079      99.019    -552.925
  O      -39.465      95.710    -550.237
  O      -38.837      97.469    -548.470
  H      -41.067     102.617    -552.365
  H      -37.962      97.046    -548.520
  H      -40.166      98.418    -557.857
  H      -39.793      97.403    -551.518
  H      -39.461     100.909    -552.378
  H      -42.197     100.693    -552.910
  H      -40.911     100.591    -558.195
  H      -42.508      99.000    -551.197
  H      -40.810     101.733    -556.902
  H      -40.919     100.891    -549.342
  H      -40.257      98.852    -548.177
  H      -42.033      98.950    -548.243
  P      -44.840     100.207    -550.515
  C      -44.775      99.144    -548.157
  O      -45.090      98.965    -549.530
  O      -45.148      99.941    -551.946
  O      -45.731     101.353    -549.854
  H      -45.923     102.106    -550.468
  H      -44.989      98.243    -547.621
  H      -45.362      99.944    -547.758
  H      -43.736      99.380    -548.057

 6  7  8  9  10  11  12  13  14  15  26  29  33  34 0
 6-311+G(2d,p)
 ****
 36  38  39  40  41 0
 6-311+G(2d,p)
 ****
 1  2  3  4  5  16  17  18  19  20  21  22  23  24  25 0
 3-21G
 ****
 27  28  30  31  32  35  37  42  43  44  45  46  47 0
 3-21G
 ****
 48  49 0
 3-21G
 ****


