%nproc=1
%NoSave
%Mem=1900MB
#P OB98/GEN NMR

erre ene a

0 1
  C      555.682     602.714    -163.498
  O      554.505     603.377    -163.977
  P      553.305     603.574    -162.930
  C      551.883     605.722    -162.551
  O      552.377     604.759    -163.476
  C      551.239     606.906    -163.292
  O      552.228     607.662    -164.007
  C      550.216     606.493    -164.334
  O      548.962     606.186    -163.747
  C      550.122     607.780    -165.164
  O      549.222     608.709    -164.523
  C      551.560     608.312    -165.125
  N      553.595     610.268    -169.346
  C      552.885     610.878    -168.322
  N      552.733     612.218    -168.442
  N      552.387     610.254    -167.288
  C      552.662     608.912    -167.304
  C      553.346     608.192    -168.249
  C      553.859     608.898    -169.399
  O      554.458     608.388    -170.341
  N      553.417     606.869    -167.908
  C      552.809     606.790    -166.736
  N      552.316     608.013    -166.329
  O      554.033     604.231    -161.660
  O      552.599     602.311    -162.569
  H      548.376     608.236    -164.384
  H      553.548     604.024    -160.848
  H      553.945     610.795    -170.124
  H      552.697     605.892    -166.138
  H      551.597     609.386    -164.953
  H      549.723     607.599    -166.182
  H      553.144     612.777    -169.167
  H      550.588     605.670    -164.958
  H      552.241     612.694    -167.687
  H      550.780     607.559    -162.543
  H      552.704     606.098    -161.928
  H      551.173     605.246    -161.877
  P      548.656     604.635    -163.438
  C      546.809     603.583    -161.953
  O      547.156     604.594    -162.873
  O      549.568     604.339    -162.159
  O      548.959     603.714    -164.575
  H      549.822     603.391    -162.142
  H      547.590     603.431    -161.206
  H      546.629     602.635    -162.493
  H      545.888     603.861    -161.441
  H      556.400     602.647    -164.288
  H      555.426     601.730    -163.164
  H      556.098     603.270    -162.684

 3  4  5  6  7  8  9  10  11  12  23  26  30  31  33  0
 6-311+G(2d,p)
 ****
 35  36  37  38 0
 6-311+G(2d,p)
 ****
 1  2  13  14  15  16  17  18  19  20  21  22  24  25  27  28  29 0
 3-21G
 ****
 32  34  39  40  41  42  43  44  45  46  47  48  49 0
 3-21G
 ****


