%nproc=1
%NoSave
%Mem=1900MB
#P OB98/GEN NMR

erre ene a

0 1
  C      956.314     674.538      83.065
  O      955.332     674.711      82.056
  H      957.091     673.879      82.680
  H      955.872     674.068      83.951
  H      956.752     675.496      83.326
  P      954.031     675.557      82.468
  C      952.761     674.108      80.687
  O      952.803     674.602      82.024
  C      952.143     672.719      80.658
  O      953.094     671.731      81.117
  C      950.920     672.550      81.563
  O      949.739     673.121      81.038
  C      950.859     671.028      81.639
  O      950.319     670.522      80.402
  C      952.356     670.678      81.802
  N      952.778     670.586      83.200
  C      952.351     669.453      83.910
  O      951.644     668.604      83.373
  N      952.682     669.346      85.250
  C      953.422     670.271      85.809
  N      953.721     670.096      87.130
  C      953.904     671.473      85.105
  C      953.535     671.558      83.810
  O      953.981     676.725      81.371
  O      953.974     676.022      83.877
  H      951.027     670.620      79.727
  H      953.128     677.224      81.442
  H      954.486     672.223      85.612
  H      953.861     672.416      83.213
  H      952.585     669.727      81.309
  H      950.215     670.666      82.445
  H      951.132     672.946      82.573
  H      951.887     672.487      79.611
  H      953.315     669.297      87.614
  H      953.782     674.074      80.305
  H      954.146     670.823      87.690
  H      952.175     674.789      80.065
  P      948.731     673.830      82.061
  C      946.878     673.870      80.209
  O      947.242     673.514      81.548
  O      948.906     675.401      81.715
  O      948.987     673.550      83.520
  H      948.818     675.954      82.522
  H      945.860     673.593      80.030
  H      947.514     673.357      79.518
  H      946.988     674.926      80.078

 6  7  8  9  10  11  12  13  14  15  16  26  30  31  32  33  35 0
 6-311+G(2d,p)
 ****
 37  38 0
 6-311+G(2d,p)
 ****
 1  2  3  4  5  17  18  19  20  21  22  23  24  25 0
 3-21G
 ****
 27  28  29  34  36  39  40  41  42  43  44  45  46 0
 3-21G
 ****


