%nproc=1
%NoSave
%Mem=1900MB
#P OB98/GEN NMR

erre ene a

0 1
  C     -171.922     557.087      58.970
  O     -171.110     557.694      57.962
  P     -171.880     558.576      56.866
  C     -169.976     560.334      56.711
  O     -170.782     559.391      56.023
  C     -169.031     561.046      55.744
  O     -168.057     560.147      55.167
  C     -169.750     561.693      54.560
  O     -170.317     562.935      54.959
  C     -168.610     561.860      53.564
  O     -167.849     563.057      53.813
  C     -167.747     560.610      53.824
  N     -165.708     558.109      49.921
  C     -165.297     559.272      50.537
  N     -164.163     559.835      50.061
  N     -165.933     559.831      51.533
  C     -167.046     559.159      51.900
  C     -167.544     557.985      51.384
  C     -166.830     557.375      50.283
  O     -167.143     556.330      49.716
  N     -168.663     557.573      52.064
  C     -168.911     558.556      52.899
  N     -167.931     559.516      52.888
  O     -172.611     559.699      57.736
  O     -172.858     557.790      56.053
  H     -167.274     562.911      54.581
  H     -173.573     559.545      57.735
  H     -165.177     557.726      49.150
  H     -169.773     558.622      53.549
  H     -166.674     560.857      53.812
  H     -168.985     561.939      52.533
  H     -163.619     559.458      49.304
  H     -170.508     561.019      54.159
  H     -163.836     560.688      50.510
  H     -168.490     561.815      56.311
  H     -169.401     559.835      57.492
  H     -170.634     561.053      57.212
  P     -171.868     563.182      54.652
  C     -172.412     563.209      57.190
  O     -172.513     563.870      55.942
  O     -172.480     561.693      54.658
  O     -172.140     563.868      53.351
  H     -173.090     561.592      53.897
  H     -172.398     563.961      57.990
  H     -171.502     562.598      57.257
  H     -173.284     562.567      57.330
  H     -171.302     556.528      59.639
  H     -172.631     556.431      58.510
  H     -172.441     557.847      59.516

 3  4  5  6  7  8  9  10  11  12  23  26  30  31 0
 6-311+G(2d,p)
 ****
 33  35  36  37  38 0
 6-311+G(2d,p)
 ****
 1  2  13  14  15  16  17  18  19  20  21  22  24  25 0
 3-21G
 ****
 27  28  29  32  34  39  40  41  42  43  44  45  46  47  48  49 0
 3-21G
 ****


