%nproc=1
%NoSave
%Mem=1900MB
#P OB98/GEN NMR

erre ene a

0 1
  C     -129.587      18.846     135.739
  O     -130.013      18.376     137.014
  P     -129.574      19.223     138.301
  C     -128.671      17.200     139.706
  O     -128.400      18.418     139.038
  C     -127.394      16.627     140.350
  O     -127.781      15.640     141.339
  C     -126.454      15.897     139.394
  O     -125.165      15.803     140.005
  C     -127.084      14.524     139.333
  O     -126.173      13.549     138.836
  C     -127.566      14.314     140.785
  N     -128.805      13.513     140.889
  C     -128.752      12.164     140.549
  O     -127.733      11.591     140.164
  N     -129.933      11.475     140.627
  C     -131.127      11.980     141.041
  O     -132.173      11.344     141.007
  C     -131.098      13.368     141.520
  C     -129.963      14.061     141.415
  O     -130.826      19.086     139.286
  O     -129.249      20.647     138.000
  H     -126.656      12.691     138.827
  H     -131.333      19.917     139.305
  H     -129.923      10.514     140.319
  H     -132.014      13.785     141.919
  H     -129.931      15.097     141.746
  H     -126.800      13.807     141.386
  H     -127.942      14.542     138.654
  H     -126.367      16.355     138.405
  H     -126.866      17.431     140.875
  H     -129.100      16.480     139.006
  H     -129.425      17.368     140.485
  P     -123.991      16.730     139.428
  C     -123.234      14.978     137.706
  O     -123.763      16.275     137.907
  O     -122.761      16.825     140.266
  O     -124.709      18.154     139.262
  H     -124.036      18.856     139.204
  H     -123.597      14.595     136.749
  H     -123.539      14.293     138.502
  H     -122.142      15.036     137.676
  H     -129.950      18.188     134.977
  H     -128.518      18.873     135.708
  H     -129.973      19.830     135.574

 3  4  5  6  7  8  9  10  11  12  13  23  28  29  30  31  32 0
 6-311+G(2d,p)
 ****
 33  34 0
 6-311+G(2d,p)
 ****
 1  2  14  15  16  17  18  19  20  21  22  24  25  26  27 0
 3-21G
 ****
 35  36  37  38  39  40  41  42  43  44  45 0
 3-21G
 ****


