%nproc=1
%NoSave
%Mem=1900MB
#P OB98/GEN NMR

erre ene a

0 1
  C      -36.449      14.993      11.019
  O      -36.693      13.671      11.467
  P      -36.917      13.358      13.017
  C      -34.902      12.253      14.287
  O      -35.502      13.412      13.752
  C      -34.325      11.416      13.138
  O      -33.527      12.247      12.271
  C      -33.438      10.287      13.657
  O      -34.179       9.084      13.778
  C      -32.342      10.220      12.611
  O      -32.783       9.465      11.468
  C      -32.177      11.713      12.237
  N      -31.330      12.556      13.101
  C      -29.945      12.435      13.036
  O      -29.361      11.676      12.269
  N      -29.238      13.214      13.918
  C      -29.774      14.109      14.798
  O      -29.164      14.612      15.734
  C      -31.203      14.385      14.626
  C      -31.908      13.594      13.818
  O      -37.277      11.799      13.022
  O      -37.966      14.177      13.693
  H      -33.643       9.832      11.196
  H      -38.241      11.669      13.079
  H      -28.242      13.029      13.973
  H      -31.644      15.186      15.204
  H      -32.977      13.756      13.704
  H      -31.802      11.820      11.213
  H      -31.462       9.706      12.994
  H      -32.988      10.569      14.618
  H      -35.154      11.008      12.546
  H      -35.643      11.672      14.848
  H      -34.109      12.530      14.989
  P      -33.739       7.990      14.859
  C      -32.827       5.985      13.548
  O      -32.511       7.205      14.189
  O      -34.837       7.129      15.389
  O      -33.060       8.868      16.015
  H      -33.706       9.025      16.734
  H      -31.953       5.647      12.986
  H      -33.665       6.119      12.858
  H      -33.080       5.230      14.297
  H      -36.327      14.992       9.956
  H      -35.559      15.367      11.480
  H      -37.277      15.617      11.282

 3  4  5  6  7  8  9  10  11  12  13  23  28  29  30  31  32 0
 6-311+G(2d,p)
 ****
 33  34 0
 6-311+G(2d,p)
 ****
 1  2  14  15  16  17  18  19  20  21  22  24  25  26  27 0
 3-21G
 ****
 35  36  37  38  39  40  41  42  43  44  45 0
 3-21G
 ****


