%nproc=1
%NoSave
%Mem=1900MB
#P OB98/GEN NMR

erre ene a

0 1
  C     -726.117     859.144    -899.560
  O     -726.186     859.009    -898.140
  H     -727.129     859.208    -899.960
  H     -725.616     858.273    -900.000
  H     -725.574     860.056    -899.820
  P     -724.813     859.068    -897.340
  C     -724.957     861.666    -896.920
  O     -724.883     860.349    -896.370
  C     -725.626     862.606    -895.940
  O     -727.040     862.319    -895.790
  C     -725.077     862.507    -894.520
  O     -723.780     863.035    -894.390
  C     -726.146     863.275    -893.750
  O     -725.953     864.698    -893.890
  C     -727.431     862.826    -894.470
  N     -728.185     861.834    -893.710
  C     -728.843     862.322    -892.560
  O     -728.742     863.532    -892.270
  N     -729.537     861.443    -891.790
  C     -729.611     860.195    -892.130
  N     -730.308     859.362    -891.290
  C     -728.965     859.648    -893.350
  C     -728.300     860.513    -894.100
  O     -723.751     859.523    -898.460
  O     -724.432     857.822    -896.620
  H     -726.242     864.941    -894.800
  H     -724.031     860.337    -898.940
  H     -729.078     858.604    -893.590
  H     -727.784     860.206    -894.990
  H     -728.084     863.686    -894.680
  H     -726.142     863.077    -892.680
  H     -725.118     861.473    -894.170
  H     -725.529     863.636    -896.310
  H     -730.721     859.783    -890.450
  H     -725.497     861.660    -897.890
  H     -730.403     858.378    -891.440
  H     -723.930     861.993    -897.120
  P     -722.710     862.367    -893.390
  C     -721.448     860.963    -895.150
  O     -721.365     862.065    -894.270
  O     -723.227     861.192    -892.640
  O     -722.252     863.610    -892.450
  H     -721.847     864.343    -892.950
  H     -720.521     860.854    -895.674
  H     -722.238     861.127    -895.853
  H     -721.648     860.074    -894.590

 6  7  8  9  10  11  12  13  14  15  16  26  30  31  32  33  35 0
 6-311+G(2d,p)
 ****
 37  38 0
 6-311+G(2d,p)
 ****
 1  2  3  4  5  17  18  19  20  21  22  23  24  25 0
 3-21G
 ****
 27  28  29  34  36  39  40  41  42  43  44  45  46 0
 3-21G
 ****


