%nproc=1
%NoSave
%Mem=1900MB
#P OB98/GEN NMR

erre ene a

0 1
  C      355.389    -282.992      78.284
  O      354.238    -283.245      79.056
  H      355.118    -283.042      77.225
  H      356.141    -283.758      78.490
  H      355.805    -282.004      78.494
  P      354.229    -282.793      80.591
  C      351.835    -281.853      80.828
  O      352.722    -282.918      81.139
  C      350.465    -282.045      81.474
  O      349.738    -283.080      80.775
  C      350.563    -282.491      82.936
  O      350.676    -281.427      83.867
  C      349.252    -283.251      83.127
  O      348.190    -282.374      83.528
  C      348.970    -283.825      81.737
  N      347.870    -288.598      83.215
  C      347.397    -287.402      83.726
  N      346.562    -287.493      84.782
  N      347.740    -286.232      83.244
  C      348.656    -286.297      82.254
  C      349.211    -287.423      81.682
  C      348.773    -288.711      82.169
  O      349.145    -289.797      81.739
  N      350.145    -287.093      80.723
  C      350.215    -285.777      80.786
  N      349.273    -285.244      81.641
  O      354.434    -281.204      80.517
  O      355.279    -283.422      81.457
  H      348.502    -281.854      84.299
  H      354.920    -280.898      81.305
  H      347.549    -289.466      83.603
  H      350.892    -285.156      80.202
  H      347.915    -283.709      81.458
  H      349.349    -284.007      83.912
  H      346.336    -288.363      85.244
  H      351.389    -283.195      83.073
  H      346.348    -286.638      85.303
  H      349.881    -281.124      81.374
  H      351.741    -281.838      79.739
  H      352.267    -280.894      81.133
  P      352.107    -280.892      84.344
  C      351.532    -278.333      84.455
  O      351.897    -279.520      85.126
  O      352.788    -280.436      82.968
  O      352.946    -281.879      85.086
  H      353.397    -281.127      82.641
  H      351.444    -277.536      85.163
  H      350.594    -278.476      83.961
  H      352.281    -278.087      83.732

 6  7  8  9  10  11  12  13  14  15  26  29  33  34 0
 6-311+G(2d,p)
 ****
 36  38  39  40  41 0
 6-311+G(2d,p)
 ****
 1  2  3  4  5  16  17  18  19  20  21  22  23  24  25 0
 3-21G
 ****
 27  28  30  31  32  35  37  42  43  44  45  46  47 0
 3-21G
 ****
 48  49 0
 3-21G
 ****


