%nproc=1
%NoSave
%Mem=1900MB
#P OB98/GEN NMR

erre ene a

0 1
  C      758.626    -528.674     890.327
  O      757.537    -527.752     890.270
  P      757.453    -526.802     888.978
  C      758.268    -524.733     890.370
  O      758.463    -525.595     889.248
  C      759.146    -523.494     890.229
  O      760.551    -523.855     890.358
  C      759.027    -522.790     888.895
  O      757.818    -522.065     888.776
  C      760.298    -521.933     888.898
  O      760.078    -520.743     889.681
  C      761.306    -522.864     889.617
  N      762.245    -523.489     888.710
  C      763.555    -523.011     888.764
  O      763.908    -522.096     889.495
  N      764.447    -523.594     887.901
  C      764.158    -524.590     887.003
  O      765.000    -525.089     886.268
  C      762.751    -525.028     886.951
  C      761.869    -524.467     887.795
  O      755.985    -526.148     889.173
  O      757.629    -527.555     887.692
  H      755.775    -525.990     890.110
  H      760.881    -520.200     889.600
  H      765.397    -523.275     887.941
  H      762.485    -525.771     886.234
  H      760.826    -524.768     887.765
  H      761.870    -522.286     890.359
  H      760.600    -521.610     887.891
  H      759.105    -523.533     888.078
  H      758.889    -522.789     891.042
  H      758.533    -525.257     891.291
  H      757.205    -524.461     890.425
  P      756.689    -522.675     887.814
  C      757.465    -521.797     885.473
  O      757.364    -522.879     886.379
  O      755.727    -521.405     887.611
  O      756.014    -523.891     888.377
  H      756.215    -520.584     887.449
  H      758.230    -522.017     884.740
  H      757.716    -520.850     885.987
  H      756.515    -521.666     884.955
  H      758.565    -529.242     891.232
  H      759.551    -528.136     890.305
  H      758.578    -529.335     889.487

 3  4  5  6  7  8  9  10  11  12  13  24  28  29  30  31  32 0
 6-311+G(2d,p)
 ****
 33  34 0
 6-311+G(2d,p)
 ****
 1  2  14  15  16  17  18  19  20  21  22  23  25  26  27 0
 3-21G
 ****
 35  36  37  38  39  40  41  42  43  44  45 0
 3-21G
 ****


