%nproc=1
%NoSave
%Mem=1900MB
#P OB98/GEN NMR

erre ene a

0 1
  C     -118.064      42.055     106.356
  O     -118.424      42.343     107.697
  P     -118.413      43.881     108.164
  C     -116.633      45.778     108.019
  O     -116.894      44.385     108.047
  C     -115.333      46.067     107.264
  O     -115.461      45.553     105.912
  C     -114.970      47.551     107.152
  O     -113.538      47.632     107.154
  C     -115.500      47.933     105.782
  O     -114.875      49.100     105.255
  C     -115.218      46.652     105.005
  N     -115.983      48.195     100.249
  C     -115.053      48.623     101.180
  N     -114.166      49.550     100.758
  N     -114.996      48.179     102.409
  C     -115.936      47.244     102.679
  C     -116.931      46.768     101.857
  C     -116.960      47.238     100.491
  O     -117.709      46.824      99.611
  N     -117.751      45.890     102.516
  C     -117.202      45.772     103.708
  N     -116.074      46.536     103.841
  O     -118.656      43.775     109.740
  O     -119.405      44.772     107.487
  H     -113.907      48.970     105.306
  H     -119.605      43.868     109.957
  H     -115.965      48.560      99.311
  H     -117.570      45.151     104.508
  H     -114.179      46.588     104.660
  H     -116.578      48.128     105.845
  H     -114.134      49.912      99.818
  H     -115.388      48.166     107.954
  H     -113.454      49.855     101.411
  H     -114.522      45.509     107.748
  H     -116.525      46.139     109.046
  H     -117.476      46.301     107.555
  P     -112.867      49.048     107.498
  C     -112.156      51.133     106.136
  O     -112.918      49.944     106.173
  O     -111.313      48.680     107.634
  O     -113.372      49.692     108.749
  H     -110.896      49.265     108.293
  H     -111.972      51.401     105.093
  H     -111.193      51.011     106.643
  H     -112.716      51.940     106.616
  H     -118.117      40.999     106.191
  H     -117.066      42.395     106.174
  H     -118.738      42.554     105.691

 3  4  5  6  7  8  9  10  11  12  23  26  30  31 0
 6-311+G(2d,p)
 ****
 33  35  36  37  38 0
 6-311+G(2d,p)
 ****
 1  2  13  14  15  16  17  18  19  20  21  22  24  25 0
 3-21G
 ****
 27  28  29  32  34  39  40  41  42  43  44  45  46  47  48  49 0
 3-21G
 ****


