%nproc=1
%NoSave
%Mem=1900MB
#P OB98/GEN NMR

erre ene a

0 1
  C     -235.496    -663.636     799.080
  O     -234.213    -663.476     798.525
  H     -235.404    -663.623     800.175
  H     -235.946    -664.584     798.783
  H     -236.148    -662.798     798.782
  P     -234.037    -663.711     796.943
  C     -233.486    -666.186     797.461
  O     -233.069    -664.989     796.809
  C     -233.139    -667.423     796.622
  O     -233.914    -667.442     795.409
  C     -231.678    -667.459     796.166
  O     -230.762    -667.665     797.202
  C     -231.740    -668.428     794.985
  O     -231.629    -669.785     795.376
  C     -233.150    -668.163     794.421
  N     -233.110    -667.456     793.141
  C     -233.205    -668.263     792.011
  O     -233.299    -669.489     792.047
  N     -233.147    -667.604     790.804
  C     -232.958    -666.273     790.635
  O     -232.873    -665.756     789.527
  C     -232.824    -665.471     791.878
  C     -232.912    -666.099     793.052
  O     -233.590    -662.522     796.150
  O     -235.462    -664.289     796.486
  H     -230.820    -669.847     795.931
  H     -235.578    -664.228     795.517
  H     -233.240    -668.167     789.983
  H     -232.674    -664.403     791.783
  H     -232.821    -665.536     793.987
  H     -233.685    -669.112     794.275
  H     -230.936    -668.227     794.269
  H     -231.443    -666.467     795.734
  H     -233.377    -668.318     797.204
  H     -234.567    -666.127     797.588
  H     -233.011    -666.244     798.452
  P     -229.674    -666.588     797.639
  C     -228.469    -666.708     795.337
  O     -228.331    -666.804     796.747
  O     -229.510    -666.349     799.117
  O     -230.283    -665.237     796.996
  H     -230.072    -664.493     797.596
  H     -227.518    -666.869     794.874
  H     -228.831    -665.734     795.079
  H     -229.162    -667.448     794.995

 6  7  8  9  10  11  12  13  14  15  16  26  31  32  33  34  35 0
 6-311+G(2d,p)
 ****
 36  37 0
 6-311+G(2d,p)
 ****
 1  2  3  4  5  17  18  19  20  21  22  23  24  25 0
 3-21G
 ****
 27  28  29  30  38  39  40  41  42  43  44  45 0
 3-21G
 ****


