%nproc=1
%NoSave
%Mem=1900MB
#P OB98/GEN NMR

erre ene a

0 1
  C      198.947    -279.907    -132.034
  O      198.656    -281.093    -131.321
  P      199.848    -282.043    -130.822
  C      201.570    -283.612    -131.983
  O      200.524    -282.674    -132.130
  C      202.276    -283.865    -133.319
  O      202.961    -282.646    -133.702
  C      203.349    -284.949    -133.284
  O      203.620    -285.372    -134.621
  C      204.538    -284.192    -132.739
  O      205.773    -284.846    -133.027
  C      204.369    -282.787    -133.380
  N      204.796    -281.714    -132.464
  C      206.154    -281.631    -132.191
  O      206.995    -282.346    -132.738
  N      206.513    -280.749    -131.208
  C      205.651    -280.007    -130.459
  O      205.948    -279.474    -129.400
  C      204.261    -279.966    -130.951
  C      203.898    -280.829    -131.900
  O      199.068    -283.273    -130.161
  O      200.793    -281.405    -129.863
  H      205.852    -284.874    -134.012
  H      198.999    -283.152    -129.196
  H      207.482    -280.792    -130.912
  H      203.574    -279.273    -130.480
  H      202.865    -280.860    -132.248
  H      204.948    -282.700    -134.305
  H      204.452    -284.119    -131.649
  H      203.094    -285.813    -132.658
  H      201.530    -284.085    -134.089
  H      201.162    -284.544    -131.577
  H      202.303    -283.250    -131.252
  P      204.192    -286.856    -134.840
  C      206.523    -287.921    -134.723
  O      205.725    -286.820    -134.356
  O      203.953    -287.457    -136.179
  O      203.475    -287.695    -133.675
  H      203.512    -288.647    -133.882
  H      207.561    -287.586    -134.820
  H      206.198    -288.360    -135.679
  H      206.472    -288.685    -133.943
  H      198.034    -279.407    -132.282
  H      199.475    -280.151    -132.932
  H      199.552    -279.265    -131.428

 3  4  5  6  7  8  9  10  11  12  13  23  28  29  30  31  32 0
 6-311+G(2d,p)
 ****
 33  34 0
 6-311+G(2d,p)
 ****
 1  2  14  15  16  17  18  19  20  21  22  24  25  26  27 0
 3-21G
 ****
 35  36  37  38  39  40  41  42  43  44  45 0
 3-21G
 ****


