%nproc=1
%NoSave
%Mem=1900MB
#P OB98/GEN NMR

erre ene a

0 1
  C      112.596    -477.788     329.584
  O      113.322    -477.793     330.799
  P      112.876    -478.752     332.002
  C      111.662    -478.293     334.266
  O      111.863    -477.908     332.919
  C      110.731    -477.309     334.985
  O      111.448    -476.067     335.151
  C      109.454    -476.970     334.233
  O      108.513    -476.410     335.156
  C      109.931    -475.886     333.284
  O      108.864    -475.080     332.788
  C      110.985    -475.135     334.138
  N      112.118    -474.668     333.319
  C      112.150    -473.314     332.996
  O      111.326    -472.508     333.427
  N      113.101    -472.929     332.103
  C      113.977    -473.778     331.472
  O      114.608    -473.484     330.457
  C      114.050    -475.143     332.020
  C      113.112    -475.532     332.892
  O      114.206    -478.847     332.891
  O      112.388    -480.093     331.584
  H      108.340    -474.784     333.565
  H      114.694    -479.663     332.666
  H      113.037    -471.979     331.756
  H      114.833    -475.798     331.659
  H      113.119    -476.537     333.278
  H      110.541    -474.257     334.638
  H      110.420    -476.356     332.423
  H      109.001    -477.811     333.698
  H      110.503    -477.707     335.987
  H      112.630    -478.355     334.766
  H      111.230    -479.293     334.302
  P      106.955    -476.607     334.848
  C      105.210    -475.420     333.372
  O      106.576    -475.519     333.730
  O      106.050    -476.640     336.036
  O      106.908    -477.982     334.033
  H      106.008    -478.354     334.049
  H      105.002    -474.398     333.049
  H      104.556    -475.668     334.220
  H      105.002    -476.103     332.548
  H      113.040    -477.090     328.906
  H      111.582    -477.504     329.775
  H      112.617    -478.767     329.152

 3  4  5  6  7  8  9  10  11  12  13  23  28  29  30  31  32 0
 6-311+G(2d,p)
 ****
 33  34 0
 6-311+G(2d,p)
 ****
 1  2  14  15  16  17  18  19  20  21  22  24  25  26  27 0
 3-21G
 ****
 35  36  37  38  39  40  41  42  43  44  45 0
 3-21G
 ****


