%nproc=1
%NoSave
%Mem=1900MB
#P OB98/GEN NMR

erre ene a

0 1
  C      140.359     -93.308     -14.395
  O      139.591     -92.365     -15.114
  H      139.680     -93.972     -13.854
  H      141.008     -92.807     -13.673
  H      140.961     -93.910     -15.082
  P      140.356     -91.201     -15.904
  C      139.864     -91.930     -18.335
  O      139.585     -91.006     -17.295
  C      138.656     -92.082     -19.268
  O      137.561     -92.690     -18.525
  C      138.138     -90.750     -19.835
  O      137.568     -91.026     -21.120
  C      137.056     -90.401     -18.833
  O      136.214     -89.384     -19.316
  C      136.441     -91.782     -18.596
  N      135.620     -91.832     -17.397
  C      134.279     -91.470     -17.551
  O      133.852     -91.121     -18.651
  N      133.463     -91.482     -16.449
  C      133.957     -91.764     -15.285
  N      133.098     -91.743     -14.231
  C      135.381     -92.094     -15.070
  C      136.147     -92.114     -16.159
  O      141.835     -91.362     -16.025
  O      139.980     -89.872     -15.092
  H      135.559     -89.746     -19.956
  H      140.743     -89.587     -14.557
  H      135.748     -92.303     -14.076
  H      137.206     -92.345     -16.102
  H      135.825     -92.087     -19.453
  H      137.499     -90.023     -17.906
  H      138.919     -89.991     -19.922
  H      138.919     -92.779     -20.073
  H      132.133     -91.502     -14.423
  H      140.097     -92.891     -17.867
  H      133.372     -91.925     -13.278
  H      140.733     -91.599     -18.911
  P      138.114     -90.365     -22.475
  C      137.861     -92.441     -23.985
  O      137.447     -91.102     -23.731
  O      139.605     -90.270     -22.547
  O      137.463     -88.901     -22.515
  H      138.071     -88.294     -22.976
  H      137.346     -92.817     -24.844
  H      137.633     -93.052     -23.137
  H      138.916     -92.460     -24.165

 6  7  8  9  10  11  12  13  14  15  16  26  30  31  32  33  35 0
 6-311+G(2d,p)
 ****
 37  38 0
 6-311+G(2d,p)
 ****
 1  2  3  4  5  17  18  19  20  21  22  23  24  25 0
 3-21G
 ****
 27  28  29  34  36  39  40  41  42  43  44  45  46 0
 3-21G
 ****


