%nproc=1
%NoSave
%Mem=1900MB
#P OB98/GEN NMR

erre ene a

0 1
  C     -256.227     478.461     252.408
  O     -257.103     477.493     252.955
  H     -256.609     479.464     252.602
  H     -255.247     478.359     252.883
  H     -256.117     478.306     251.333
  P     -258.614     477.497     252.416
  C     -260.584     479.185     252.402
  O     -259.236     478.933     252.787
  C     -260.669     480.501     251.633
  O     -260.578     481.593     252.582
  C     -259.569     480.695     250.573
  O     -260.150     480.900     249.281
  C     -258.864     481.981     250.994
  O     -258.526     482.821     249.891
  C     -259.875     482.651     251.921
  N     -258.293     487.420     252.795
  C     -259.233     486.931     251.958
  N     -259.685     485.663     251.846
  C     -259.074     484.867     252.747
  C     -258.112     485.221     253.675
  C     -257.704     486.567     253.670
  N     -256.707     487.055     254.482
  N     -257.718     484.123     254.418
  C     -258.394     483.112     253.913
  N     -259.214     483.509     252.884
  O     -259.365     476.492     253.417
  O     -258.780     477.082     250.993
  H     -259.364     483.183     249.546
  H     -259.900     475.859     252.904
  H     -259.682     487.653     251.280
  H     -258.298     482.074     254.213
  H     -260.607     483.253     251.369
  H     -257.940     481.722     251.526
  H     -258.863     479.856     250.533
  H     -261.660     480.560     251.165
  H     -261.215     479.251     253.298
  H     -256.398     488.003     254.330
  H     -256.191     486.403     255.058
  H     -260.940     478.351     251.789
  P     -260.022     479.690     248.232
  C     -258.085     478.571     246.895
  O     -258.485     479.623     247.765
  O     -260.774     480.256     246.940
  O     -260.613     478.405     248.706
  H     -261.131     479.517     246.404
  H     -257.041     478.665     246.679
  H     -258.645     478.629     245.985
  H     -258.268     477.628     247.367

 6  7  8  9  10  11  12  13  14  15  25  28  32  33  34  35 0
 6-311+G(2d,p)
 ****
 36  39  40 0
 6-311+G(2d,p)
 ****
 1  2  3  4  5  16  17  18  19  20  21  22  23  24 0
 3-21G
 ****
 26  27  29  30  31  37  38  41  42  43  44  45  46  47  48 0
 3-21G
 ****


