%nproc=1
%NoSave
%Mem=1900MB
#P OB98/GEN NMR

erre ene a

0 1
  C     -363.147     766.435    -645.674
  O     -364.421     767.021    -645.876
  P     -365.763     766.323    -645.319
  C     -366.203     765.458    -647.726
  O     -366.714     766.162    -646.603
  C     -367.289     765.312    -648.800
  O     -368.357     764.478    -648.253
  C     -367.925     766.627    -649.270
  O     -368.224     766.484    -650.659
  C     -369.192     766.704    -648.438
  O     -370.162     767.549    -649.029
  C     -369.591     765.225    -648.372
  N     -370.496     764.936    -647.263
  C     -371.866     764.972    -647.517
  O     -372.289     765.267    -648.634
  N     -372.732     764.681    -646.505
  C     -372.270     764.437    -645.308
  N     -373.175     764.080    -644.347
  C     -370.834     764.488    -644.966
  C     -370.014     764.715    -646.007
  O     -366.384     767.009    -644.150
  O     -365.319     764.808    -645.044
  H     -369.756     768.431    -649.182
  H     -364.919     764.675    -644.151
  H     -370.507     764.314    -643.949
  H     -368.940     764.737    -645.843
  H     -370.046     764.912    -649.335
  H     -368.957     767.086    -647.432
  H     -367.251     767.483    -649.124
  H     -366.860     764.756    -649.653
  H     -374.113     763.883    -644.654
  H     -365.877     764.466    -647.399
  H     -372.877     763.584    -643.501
  H     -365.322     765.978    -648.130
  P     -367.435     767.411    -651.714
  C     -369.426     768.948    -652.324
  O     -368.508     767.991    -652.766
  O     -366.658     766.286    -652.586
  O     -366.447     768.370    -651.153
  H     -365.871     766.690    -652.981
  H     -370.065     769.216    -653.160
  H     -368.929     769.840    -651.959
  H     -370.052     768.529    -651.526
  H     -362.395     767.053    -646.119
  H     -363.125     765.465    -646.126
  H     -362.959     766.344    -644.625

 3  4  5  6  7  8  9  10  11  12  13  23  27  28  29  30  32 0
 6-311+G(2d,p)
 ****
 34  35 0
 6-311+G(2d,p)
 ****
 1  2  14  15  16  17  18  19  20  21  22  24  25  26 0
 3-21G
 ****
 31  33  36  37  38  39  40  41  42  43  44  45  46 0
 3-21G
 ****


