%nproc=1
%NoSave
%Mem=1900MB
#P OB98/GEN NMR

erre ene a

0 1
  C     -105.208     -74.031    -124.209
  O     -104.588     -75.121    -124.863
  H     -104.536     -73.613    -123.455
  H     -105.433     -73.258    -124.949
  H     -106.141     -74.353    -123.740
  P     -104.163     -76.358    -123.932
  C     -106.255     -77.561    -122.998
  O     -105.326     -77.459    -124.068
  C     -107.451     -78.411    -123.423
  O     -108.069     -77.779    -124.576
  C     -107.090     -79.856    -123.807
  O     -107.943     -80.785    -123.125
  C     -107.385     -79.930    -125.293
  O     -107.871     -81.204    -125.701
  C     -108.423     -78.830    -125.484
  N     -111.231     -78.613    -129.733
  C     -111.578     -78.817    -128.444
  N     -110.796     -78.767    -127.347
  C     -109.534     -78.437    -127.677
  C     -109.038     -78.176    -128.943
  C     -109.945     -78.296    -130.010
  N     -109.580     -78.142    -131.330
  N     -107.688     -77.877    -128.890
  C     -107.368     -77.998    -127.617
  N     -108.448     -78.350    -126.849
  O     -104.357     -75.783    -122.449
  O     -102.773     -76.851    -124.152
  H     -107.145     -81.844    -125.582
  H     -103.495     -75.798    -121.991
  H     -112.623     -79.060    -128.270
  H     -106.371     -77.890    -127.207
  H     -109.431     -79.174    -125.221
  H     -106.466     -79.713    -125.851
  H     -106.045     -80.099    -123.593
  H     -108.193     -78.402    -122.615
  H     -106.608     -76.561    -122.722
  H     -110.265     -78.361    -132.035
  H     -108.600     -78.016    -131.546
  H     -105.756     -78.010    -122.133
  P     -107.242     -81.693    -121.996
  C     -107.817     -80.304    -119.877
  O     -108.053     -81.493    -120.622
  O     -105.850     -80.946    -121.740
  O     -107.031     -83.112    -122.411
  H     -105.109     -81.566    -121.883
  H     -108.422     -80.310    -118.994
  H     -108.067     -79.453    -120.475
  H     -106.784     -80.255    -119.601

 6  7  8  9  10  11  12  13  14  15  25  28  32  33  34  35 0
 6-311+G(2d,p)
 ****
 36  39  40 0
 6-311+G(2d,p)
 ****
 1  2  3  4  5  16  17  18  19  20  21  22  23  24 0
 3-21G
 ****
 26  27  29  30  31  37  38  41  42  43  44  45  46  47  48 0
 3-21G
 ****


