%nproc=1
%NoSave
%Mem=1900MB
#P OB98/GEN NMR

erre ene a

0 1
  C     -256.968     538.399    -151.980
  O     -257.489     537.317    -151.224
  P     -256.658     535.947    -151.202
  C     -256.513     533.862    -152.730
  O     -257.012     535.183    -152.573
  C     -257.362     533.071    -153.718
  O     -258.589     532.648    -153.048
  C     -257.777     533.861    -154.972
  O     -257.625     533.029    -156.130
  C     -259.264     534.103    -154.767
  O     -259.949     534.288    -156.001
  C     -259.646     532.835    -154.006
  N     -264.644     532.407    -154.658
  C     -263.608     532.035    -155.494
  N     -263.958     531.531    -156.700
  N     -262.344     532.156    -155.181
  C     -262.137     532.640    -153.934
  C     -263.079     533.040    -153.014
  C     -264.475     532.958    -153.390
  O     -265.435     533.358    -152.735
  N     -262.490     533.465    -151.847
  C     -261.195     533.336    -152.069
  N     -260.932     532.885    -153.339
  O     -257.412     535.084    -150.087
  O     -255.206     536.088    -150.895
  H     -259.998     533.410    -156.428
  H     -256.773     534.802    -149.400
  H     -265.600     532.312    -154.953
  H     -260.414     533.581    -151.358
  H     -259.657     531.974    -154.685
  H     -259.397     535.004    -154.151
  H     -264.911     531.381    -156.993
  H     -257.218     534.797    -155.120
  H     -263.218     531.233    -157.315
  H     -256.823     532.159    -153.996
  H     -256.530     533.357    -151.757
  H     -255.477     533.910    -153.086
  P     -257.330     533.788    -157.512
  C     -258.818     534.509    -159.527
  O     -258.762     534.021    -158.204
  O     -256.648     532.657    -158.417
  O     -256.466     535.001    -157.364
  H     -256.081     533.064    -159.106
  H     -257.835     534.519    -160.008
  H     -259.216     535.519    -159.516
  H     -259.486     533.864    -160.115
  H     -257.626     539.239    -151.900
  H     -256.883     538.109    -153.006
  H     -256.003     538.665    -151.603

 3  4  5  6  7  8  9  10  11  12  23  26  30  31  33  0
 6-311+G(2d,p)
 ****
 35  36  37  38 0
 6-311+G(2d,p)
 ****
 1  2  13  14  15  16  17  18  19  20  21  22  24  25  27  28  29 0
 3-21G
 ****
 32  34  39  40  41  42  43  44  45  46  47  48  49 0
 3-21G
 ****


