%nproc=1
%NoSave
%Mem=1900MB
#P OB98/GEN NMR

erre ene a

0 1
  C       66.432    -273.636      20.830
  O       67.419    -274.568      20.437
  H       66.262    -272.938      20.007
  H       66.760    -273.069      21.706
  H       65.494    -274.151      21.051
  P       67.974    -275.610      21.521
  C       67.753    -277.624      19.932
  O       68.637    -276.816      20.695
  C       68.517    -278.743      19.222
  O       69.057    -278.217      17.979
  C       69.680    -279.311      20.046
  O       69.751    -280.717      19.808
  C       70.881    -278.608      19.450
  O       72.073    -279.338      19.670
  C       70.476    -278.454      17.978
  N       71.215    -277.366      17.340
  C       72.389    -277.720      16.665
  O       72.747    -278.898      16.619
  N       73.163    -276.731      16.119
  C       72.828    -275.489      16.278
  N       73.662    -274.555      15.742
  C       71.612    -275.067      17.003
  C       70.861    -276.046      17.502
  O       67.011    -276.035      22.579
  O       69.241    -274.860      22.151
  H       72.844    -278.778      19.442
  H       68.969    -274.340      22.929
  H       71.383    -274.018      17.113
  H       69.956    -275.830      18.062
  H       70.666    -279.382      17.425
  H       71.000    -277.621      19.915
  H       69.580    -279.116      21.117
  H       67.805    -279.531      18.949
  H       74.496    -274.890      15.273
  H       67.267    -276.982      19.187
  H       73.528    -273.561      15.837
  H       66.983    -278.050      20.584
  P       70.088    -281.733      21.006
  C       67.680    -282.545      21.311
  O       69.014    -282.930      20.997
  O       70.281    -281.085      22.338
  O       71.441    -282.453      20.530
  H       71.967    -282.699      21.316
  H       67.044    -283.405      21.279
  H       67.340    -281.823      20.598
  H       67.654    -282.118      22.292

 6  7  8  9  10  11  12  13  14  15  16  26  30  31  32  33  35 0
 6-311+G(2d,p)
 ****
 37  38 0
 6-311+G(2d,p)
 ****
 1  2  3  4  5  17  18  19  20  21  22  23  24  25 0
 3-21G
 ****
 27  28  29  34  36  39  40  41  42  43  44  45  46 0
 3-21G
 ****


