%nproc=1
%NoSave
%Mem=1900MB
#P OB98/GEN NMR

erre ene a

0 1
  C      553.302     581.807    -279.445
  O      551.978     582.305    -279.505
  H      553.825     582.305    -278.624
  H      553.825     582.019    -280.380
  H      553.292     580.731    -279.258
  P      551.029     581.682    -280.639
  C      549.278     581.122    -278.800
  O      549.534     581.737    -280.057
  C      549.429     582.152    -277.685
  O      548.604     583.306    -277.967
  C      548.975     581.656    -276.320
  O      549.936     580.822    -275.700
  C      548.753     582.972    -275.587
  O      549.977     583.492    -275.057
  C      548.226     583.887    -276.700
  N      544.447     587.193    -275.754
  C      545.793     587.351    -275.823
  N      546.730     586.418    -276.095
  C      546.158     585.226    -276.335
  C      544.804     584.916    -276.304
  C      543.927     585.967    -276.000
  N      542.563     585.807    -275.904
  N      544.608     583.574    -276.565
  C      545.814     583.086    -276.761
  N      546.782     584.046    -276.635
  O      551.397     580.124    -280.600
  O      551.204     582.261    -282.001
  H      550.219     582.909    -274.305
  H      552.014     579.918    -281.328
  H      546.158     588.352    -275.629
  H      546.042     582.048    -276.984
  H      548.663     584.891    -276.656
  H      548.057     582.840    -274.758
  H      548.012     581.132    -276.408
  H      550.476     582.484    -277.650
  H      549.993     580.309    -278.639
  H      548.266     580.710    -278.807
  H      542.001     586.589    -275.613
  H      542.178     584.875    -275.973
  P      549.411     579.523    -274.927
  C      551.671     578.226    -275.053
  O      550.681     578.836    -274.232
  O      549.025     578.507    -276.106
  O      548.262     579.767    -274.007
  H      548.239     577.982    -275.846
  H      552.444     577.818    -274.436
  H      552.089     578.958    -275.711
  H      551.224     577.443    -275.629

 6  7  8  9  10  11  12  13  14  15  25  28  32  33  34  35 0
 6-311+G(2d,p)
 ****
 36  37  40 0
 6-311+G(2d,p)
 ****
 1  2  3  4  5  16  17  18  19  20  21  22  23  24 0
 3-21G
 ****
 26  27  29  30  31  38  39 41  42  43  44  45  46  47  48 0
 3-21G
 ****


