%nproc=1
%NoSave
%Mem=1900MB
#P OB98/GEN NMR

erre ene a

0 1
  C      -26.211      -3.167     -16.684
  O      -24.937      -3.681     -17.011
  H      -26.919      -3.472     -17.459
  H      -26.189      -2.075     -16.642
  H      -26.549      -3.572     -15.726
  P      -23.691      -3.273     -16.085
  C      -24.082      -5.580     -14.972
  O      -23.855      -4.193     -14.776
  C      -24.475      -6.242     -13.654
  O      -24.832      -7.625     -13.855
  C      -23.372      -6.275     -12.600
  O      -23.136      -5.017     -11.991
  C      -23.962      -7.289     -11.633
  O      -25.004      -6.666     -10.860
  C      -24.550      -8.333     -12.614
  N      -23.648      -9.455     -12.860
  C      -24.062     -10.707     -12.389
  O      -25.135     -10.831     -11.800
  N      -23.231     -11.788     -12.562
  C      -22.081     -11.630     -13.137
  N      -21.276     -12.723     -13.241
  C      -21.612     -10.334     -13.664
  C      -22.432      -9.299     -13.489
  O      -23.512      -1.813     -15.823
  O      -22.428      -3.951     -16.798
  H      -25.557      -6.161     -11.483
  H      -21.627      -3.717     -16.268
  H      -20.640     -10.255     -14.128
  H      -22.151      -8.311     -13.834
  H      -25.505      -8.721     -12.242
  H      -23.230      -7.690     -10.928
  H      -22.447      -6.687     -13.016
  H      -25.371      -5.730     -13.282
  H      -21.611     -13.584     -12.831
  H      -23.166      -6.022     -15.375
  H      -20.281     -12.630     -13.414
  H      -24.894      -5.731     -15.689
  P      -22.046      -4.947     -10.812
  C      -20.119      -5.201     -12.547
  O      -20.728      -5.681     -11.360
  O      -22.627      -5.969      -9.730
  O      -21.795      -3.587     -10.242
  H      -23.167      -5.505      -9.061
  H      -19.259      -5.796     -12.772
  H      -19.822      -4.182     -12.409
  H      -20.817      -5.262     -13.356

 6  7  8  9  10  11  12  13  14  15  16  26  30  31  32  33  35 0
 6-311+G(2d,p)
 ****
 37  38 0
 6-311+G(2d,p)
 ****
 1  2  3  4  5  17  18  19  20  21  22  23  24  25 0
 3-21G
 ****
 27  28  29  34  36  39  40  41  42  43  44  45  46 0
 3-21G
 ****


