%nproc=1
%NoSave
%Mem=1900MB
#P OB98/GEN NMR

erre ene a

0 1
  C      266.007    -218.289      -9.759
  O      265.316    -219.476     -10.092
  H      266.877    -218.190     -10.414
  H      266.353    -218.327      -8.721
  H      265.356    -217.421      -9.899
  P      264.060    -219.853      -9.164
  C      265.321    -221.988      -8.348
  O      264.711    -220.752      -8.001
  C      265.231    -222.954      -7.170
  O      266.141    -222.560      -6.117
  C      263.853    -223.012      -6.518
  O      262.929    -223.803      -7.247
  C      264.211    -223.645      -5.183
  O      264.442    -225.052      -5.363
  C      265.527    -222.906      -4.845
  N      265.319    -221.705      -4.033
  C      264.928    -221.906      -2.705
  O      264.761    -223.043      -2.265
  N      264.702    -220.807      -1.907
  C      264.859    -219.614      -2.389
  N      264.604    -218.565      -1.562
  C      265.285    -219.357      -3.777
  C      265.494    -220.433      -4.534
  O      263.260    -220.933     -10.033
  O      263.230    -218.709      -8.685
  H      264.546    -225.438      -4.474
  H      262.530    -221.323      -9.493
  H      265.393    -218.344      -4.139
  H      265.808    -220.322      -5.565
  H      266.223    -223.568      -4.318
  H      263.424    -223.539      -4.435
  H      263.451    -222.010      -6.333
  H      265.547    -223.945      -7.521
  H      264.254    -218.771      -0.635
  H      266.369    -221.795      -8.600
  H      264.527    -217.611      -1.897
  H      264.817    -222.428      -9.215
  P      261.401    -223.309      -7.296
  C      260.517    -225.051      -5.581
  O      260.743    -223.680      -5.879
  O      260.717    -224.349      -8.299
  O      261.210    -221.889      -7.737
  H      260.065    -223.908      -8.873
  H      260.077    -225.137      -4.609
  H      261.448    -225.578      -5.599
  H      259.856    -225.470      -6.310

 6  7  8  9  10  11  12  13  14  15  16  26  30  31  32  33  35 0
 6-311+G(2d,p)
 ****
 37  38 0
 6-311+G(2d,p)
 ****
 1  2  3  4  5  17  18  19  20  21  22  23  24  25 0
 3-21G
 ****
 27  28  29  34  36  39  40  41  42  43  44  45  46 0
 3-21G
 ****


