%nproc=1
%NoSave
%Mem=1900MB
#P OB98/GEN NMR

erre ene a

0 1
  C      226.740      65.571    -127.723
  O      226.132      64.323    -127.422
  P      225.905      63.960    -125.873
  C      227.551      63.370    -123.907
  O      227.352      63.585    -125.296
  C      228.970      62.851    -123.650
  O      229.099      61.505    -124.156
  C      230.073      63.653    -124.332
  O      230.345      64.864    -123.653
  C      231.217      62.644    -124.325
  O      231.855      62.625    -123.038
  C      230.472      61.312    -124.567
  N      230.548      60.852    -125.957
  C      231.826      60.588    -126.442
  O      232.847      60.725    -125.768
  N      231.894      60.181    -127.749
  C      230.840      60.072    -128.614
  O      230.961      59.742    -129.789
  C      229.520      60.393    -128.051
  C      229.435      60.763    -126.767
  O      225.144      62.558    -126.012
  O      225.160      65.013    -125.124
  H      225.381      62.099    -126.836
  H      232.263      63.504    -122.916
  H      232.807      59.958    -128.120
  H      228.662      60.329    -128.706
  H      228.473      61.014    -126.337
  H      230.875      60.529    -123.917
  H      231.988      62.871    -125.072
  H      229.783      63.870    -125.367
  H      229.134      62.821    -122.562
  H      226.821      62.639    -123.548
  H      227.386      64.315    -123.371
  P      230.827      66.109    -124.560
  C      233.012      66.628    -125.896
  O      232.343      65.799    -124.969
  O      230.942      67.269    -123.458
  O      229.901      66.417    -125.692
  H      231.347      66.965    -122.626
  H      234.089      66.488    -125.776
  H      232.772      67.682    -125.735
  H      232.731      66.339    -126.913
  H      226.828      65.678    -128.784
  H      227.713      65.610    -127.279
  H      226.138      66.365    -127.333

 3  4  5  6  7  8  9  10  11  12  13  24  28  29  30  31  32 0
 6-311+G(2d,p)
 ****
 33  34 0
 6-311+G(2d,p)
 ****
 1  2  14  15  16  17  18  19  20  21  22  23  25  26  27 0
 3-21G
 ****
 35  36  37  38  39  40  41  42  43  44  45 0
 3-21G
 ****


