%nproc=1
%NoSave
%Mem=1900MB
#P OB98/GEN NMR

erre ene a

0 1
  C     -899.570     136.737    -111.970
  O     -898.170     136.738    -112.142
  H     -900.000     135.929    -112.565
  H     -899.990     137.688    -112.318
  H     -899.850     136.577    -110.921
  P     -897.270     137.626    -111.160
  C     -897.090     139.771    -112.587
  O     -896.420     138.614    -112.100
  C     -896.120     140.665    -113.370
  O     -895.260     141.368    -112.436
  C     -895.220     139.897    -114.345
  O     -894.950     140.767    -115.459
  C     -893.970     139.702    -113.517
  O     -892.860     139.366    -114.318
  C     -893.900     141.040    -112.782
  N     -893.030     140.986    -111.606
  C     -891.690     141.290    -111.807
  O     -891.220     141.556    -112.916
  N     -890.890     141.230    -110.710
  C     -891.280     140.848    -109.451
  O     -890.500     140.779    -108.503
  C     -892.700     140.499    -109.307
  C     -893.500     140.588    -110.370
  O     -896.460     136.867    -110.162
  O     -898.310     138.622    -110.458
  H     -892.810     139.949    -115.102
  H     -898.000     138.851    -109.562
  H     -889.910     141.457    -110.836
  H     -893.030     140.186    -108.328
  H     -894.550     140.344    -110.287
  H     -893.520     141.825    -113.445
  H     -894.110     138.876    -112.803
  H     -895.660     138.959    -114.696
  H     -896.710     141.431    -113.895
  H     -897.480     140.321    -111.717
  H     -897.920     139.466    -113.221
  P     -895.910     140.842    -116.739
  C     -894.210     139.978    -118.475
  O     -895.010     141.082    -118.046
  O     -897.050     141.803    -116.590
  O     -896.450     139.351    -116.929
  H     -897.340     139.367    -117.356
  H     -893.658     140.256    -119.349
  H     -894.843     139.146    -118.702
  H     -893.530     139.706    -117.695

 6  7  8  9  10  11  12  13  14  15  16  26  31  32  33  34  35 0
 6-311+G(2d,p)
 ****
 36  37 0
 6-311+G(2d,p)
 ****
 1  2  3  4  5  17  18  19  20  21  22  23  24  25 0
 3-21G
 ****
 27  28  29  30  38  39  40  41  42  43  44  45 0
 3-21G
 ****


