%nproc=1
%NoSave
%Mem=1900MB
#P OB98/GEN NMR

erre ene a

0 1
  C     -238.163    -542.700     533.242
  O     -237.751    -543.612     532.246
  H     -237.291    -542.128     533.572
  H     -238.578    -543.230     534.104
  H     -238.901    -542.002     532.843
  P     -238.838    -544.618     531.629
  C     -238.081    -546.779     532.829
  O     -239.081    -545.766     532.727
  C     -238.497    -547.825     533.871
  O     -237.434    -548.815     533.949
  C     -238.694    -547.217     535.263
  O     -239.955    -547.545     535.841
  C     -237.436    -547.652     536.018
  O     -237.592    -547.740     537.419
  C     -237.057    -548.967     535.328
  N     -235.639    -549.297     535.439
  C     -235.237    -550.043     536.545
  O     -235.983    -550.450     537.432
  N     -233.893    -550.323     536.614
  C     -232.937    -549.932     535.718
  O     -231.756    -550.218     535.834
  C     -233.418    -549.131     534.583
  C     -234.721    -548.850     534.498
  O     -238.542    -545.122     530.255
  O     -240.207    -543.789     531.667
  H     -238.106    -548.558     537.600
  H     -240.431    -543.490     530.764
  H     -233.594    -550.872     537.403
  H     -232.685    -548.786     533.859
  H     -235.113    -548.261     533.672
  H     -237.624    -549.803     535.749
  H     -236.649    -546.911     535.825
  H     -238.715    -546.125     535.216
  H     -239.395    -548.340     533.516
  H     -237.143    -546.293     533.127
  H     -237.939    -547.257     531.853
  P     -241.055    -546.486     536.307
  C     -240.321    -546.479     538.837
  O     -240.524    -545.755     537.626
  O     -242.469    -546.978     536.329
  O     -240.967    -545.323     535.199
  H     -241.867    -544.952     535.105
  H     -239.966    -545.813     539.595
  H     -239.599    -547.252     538.674
  H     -241.246    -546.916     539.151

 6  7  8  9  10  11  12  13  14  15  16  26  31  32  33  34  35 0
 6-311+G(2d,p)
 ****
 36  37 0
 6-311+G(2d,p)
 ****
 1  2  3  4  5  17  18  19  20  21  22  23  24  25 0
 3-21G
 ****
 27  28  29  30  38  39  40  41  42  43  44  45 0
 3-21G
 ****


