%nproc=1
%NoSave
%Mem=1900MB
#P OB98/GEN NMR

erre ene a

0 1
  C     -274.082    -895.250    -695.244
  O     -273.894    -894.250    -694.213
  P     -274.847    -892.960    -694.168
  C     -275.997    -893.180    -691.820
  O     -276.110    -893.280    -693.250
  C     -276.671    -894.370    -691.144
  O     -276.006    -895.610    -691.488
  C     -276.703    -894.320    -689.639
  O     -277.668    -893.410    -689.150
  C     -276.982    -895.770    -689.300
  O     -278.404    -896.060    -689.353
  C     -276.241    -896.530    -690.393
  N     -274.970    -897.120    -689.913
  C     -274.817    -898.490    -690.142
  O     -275.700    -899.210    -690.631
  N     -273.627    -899.010    -689.718
  C     -272.628    -898.360    -689.075
  O     -271.580    -898.880    -688.702
  C     -272.899    -896.910    -688.811
  C     -274.028    -896.380    -689.231
  O     -275.472    -892.980    -695.648
  O     -274.140    -891.660    -693.910
  H     -278.817    -895.510    -688.642
  H     -275.707    -892.060    -695.909
  H     -273.474    -900.000    -689.894
  H     -272.138    -896.340    -688.281
  H     -274.232    -895.330    -689.046
  H     -276.854    -897.320    -690.799
  H     -276.665    -896.030    -688.278
  H     -275.697    -894.060    -689.276
  H     -277.710    -894.450    -691.565
  H     -276.470    -892.260    -691.499
  H     -274.930    -893.140    -691.568
  P     -277.270    -891.830    -689.133
  C     -279.023    -890.730    -690.726
  O     -277.730    -891.280    -690.558
  O     -275.681    -891.940    -689.230
  O     -277.801    -891.140    -687.927
  H     -275.376    -892.720    -689.754
  H     -279.381    -890.240    -689.803
  H     -279.718    -891.530    -691.019
  H     -278.995    -890.010    -691.531
  H     -273.362    -896.032    -695.118
  H     -273.954    -894.799    -696.206
  H     -275.068    -895.658    -695.169

 3  4  5  6  7  8  9  10  11  12  13  23  28  29  30  31  32 0
 6-311+G(2d,p)
 ****
 33  34 0
 6-311+G(2d,p)
 ****
 1  2  14  15  16  17  18  19  20  21  22  24  25  26 0
 3-21G
 ****
 27  35  36  37  38  39  40  41  42  43  44  45 0
 3-21G
 ****


