%nproc=1
%NoSave
%Mem=1900MB
#P OB98/GEN NMR

erre ene a

0 1
  C      -29.834      45.613     130.003
  O      -28.602      45.473     129.323
  H      -30.653      45.601     129.281
  H      -29.957      44.768     130.686
  H      -29.856      46.540     130.580
  P      -28.073      46.741     128.495
  C      -25.645      46.133     129.192
  O      -26.537      46.431     128.127
  C      -24.369      45.487     128.654
  O      -24.737      44.319     127.867
  C      -23.523      46.409     127.759
  O      -22.141      46.165     128.036
  C      -23.841      45.917     126.356
  O      -22.799      46.197     125.425
  C      -24.054      44.426     126.605
  N      -24.026      43.396     121.624
  C      -23.041      43.739     122.481
  N      -23.125      43.942     123.813
  C      -24.372      43.695     124.250
  C      -25.479      43.335     123.502
  C      -25.273      43.202     122.117
  N      -26.286      42.922     121.225
  N      -26.595      43.228     124.310
  C      -26.173      43.542     125.518
  N      -24.836      43.835     125.532
  O      -27.965      47.869     129.628
  O      -28.934      47.174     127.356
  H      -22.594      47.153     125.458
  H      -28.821      48.326     129.717
  H      -22.055      43.876     122.040
  H      -26.794      43.603     126.404
  H      -23.112      43.868     126.673
  H      -24.760      46.393     125.998
  H      -23.746      47.475     127.885
  H      -23.776      45.128     129.504
  H      -26.133      45.434     129.880
  H      -26.067      42.953     120.242
  H      -27.236      42.882     121.562
  H      -25.407      47.054     129.732
  P      -21.385      47.209     128.992
  C      -20.403      45.193     130.321
  O      -20.163      46.454     129.704
  O      -22.431      47.430     130.186
  O      -21.030      48.496     128.322
  H      -22.362      48.342     130.527
  H      -19.493      44.825     130.747
  H      -20.760      44.500     129.588
  H      -21.137      45.307     131.091

 6  7  8  9  10  11  12  13  14  15  25  28  32  33  34  35 0
 6-311+G(2d,p)
 ****
 36  39  40 0
 6-311+G(2d,p)
 ****
 1  2  3  4  5  16  17  18  19  20  21  22  23  24 0
 3-21G
 ****
 26  27  29  30  31  37  38  41  42  43  44  45  46  47 0
 3-21G
 ****
 48 0
 3-21G
 ****


