%nproc=1
%NoSave
%Mem=1900MB
#P OB98/GEN NMR

erre ene a

0 1
  C     -152.066      15.966     379.125
  O     -150.749      15.629     379.515
  P     -150.080      16.486     380.696
  C     -148.235      17.299     379.035
  O     -149.215      17.649     380.008
  C     -148.304      18.277     377.856
  O     -149.645      18.307     377.310
  C     -147.988      19.719     378.239
  O     -146.592      19.923     378.359
  C     -148.622      20.486     377.091
  O     -147.738      20.532     375.954
  C     -149.866      19.630     376.778
  N     -151.094      20.226     377.292
  C     -151.772      21.077     376.419
  O     -151.359      21.342     375.286
  N     -152.913      21.649     376.906
  C     -153.413      21.502     378.173
  O     -154.414      22.081     378.565
  C     -152.643      20.607     379.056
  C     -151.536      20.030     378.585
  O     -148.969      15.502     381.300
  O     -151.033      16.958     381.739
  H     -148.270      20.854     375.200
  H     -148.902      15.632     382.268
  H     -153.433      22.250     376.288
  H     -153.009      20.473     380.068
  H     -150.944      19.389     379.228
  H     -149.972      19.505     375.696
  H     -148.844      21.525     377.363
  H     -148.503      19.982     379.171
  H     -147.623      17.925     377.073
  H     -148.418      16.281     378.681
  H     -147.246      17.329     379.500
  P     -146.028      20.250     379.819
  C     -145.919      22.727     378.980
  O     -146.258      21.824     380.017
  O     -144.451      20.088     379.587
  O     -146.596      19.358     380.882
  H     -144.192      20.339     378.682
  H     -146.118      22.291     377.997
  H     -144.870      22.993     379.062
  H     -146.528      23.632     379.093
  H     -152.381      15.317     378.335
  H     -152.089      16.980     378.785
  H     -152.725      15.856     379.961

 3  4  5  6  7  8  9  10  11  12  13  23  28  29  30  31  32 0
 6-311+G(2d,p)
 ****
 33  34 0
 6-311+G(2d,p)
 ****
 1  2  14  15  16  17  18  19  20  21  22  24  25  26 0
 3-21G
 ****
 27  35  36  37  38  39  40  41  42  43  44  45 0
 3-21G
 ****


