%nproc=1
%NoSave
%Mem=1900MB
#P OB98/GEN NMR

erre ene a

0 1
  C     -305.576     685.328     418.606
  O     -306.219     684.152     418.158
  P     -307.230     684.208     416.913
  C     -305.232     683.806     415.339
  O     -306.382     684.602     415.603
  C     -305.281     683.249     413.917
  O     -306.380     682.318     413.765
  C     -305.513     684.305     412.846
  O     -304.361     685.104     412.627
  C     -305.925     683.440     411.662
  O     -304.776     682.869     411.020
  C     -306.752     682.337     412.362
  N     -308.185     682.525     412.195
  C     -308.664     682.440     410.882
  O     -307.888     682.299     409.940
  N     -310.022     682.528     410.679
  C     -310.809     682.804     411.672
  N     -312.146     682.814     411.420
  C     -310.322     683.059     413.045
  C     -309.018     682.883     413.232
  O     -308.462     685.019     417.126
  O     -307.600     682.672     416.642
  H     -308.571     682.590     416.587
  H     -304.254     682.432     411.718
  H     -311.014     683.349     413.820
  H     -308.566     683.026     414.213
  H     -306.477     681.348     411.971
  H     -306.474     684.004     410.905
  H     -306.355     684.950     413.135
  H     -304.343     682.714     413.724
  H     -312.442     682.619     410.471
  H     -305.210     682.973     416.054
  H     -312.844     682.693     412.150
  H     -304.332     684.410     415.479
  P     -304.596     686.583     412.052
  C     -305.002     687.783     414.310
  O     -305.555     687.353     413.078
  O     -305.533     686.333     410.771
  O     -303.348     687.313     411.677
  H     -305.292     686.965     410.065
  H     -305.650     688.564     414.724
  H     -303.997     688.186     414.181
  H     -304.977     686.944     415.015
  H     -304.946     685.095     419.439
  H     -306.312     686.045     418.906
  H     -304.984     685.735     417.813

 3  4  5  6  7  8  9  10  11  12  13  24  27  28  29  30  32 0
 6-311+G(2d,p)
 ****
 34  35 0
 6-311+G(2d,p)
 ****
 1  2  14  15  16  17  18  19  20  21  22  23  25  26 0
 3-21G
 ****
 31  33  36  37  38  39  40  41  42  43  44  45  46 0
 3-21G
 ****


