%nproc=1
%NoSave
%Mem=1900MB
#P OB98/GEN NMR

erre ene a

0 1
  C      686.520     296.444     322.258
  O      687.270     296.067     323.401
  P      688.801     295.626     323.160
  C      688.382     294.596     325.535
  O      689.320     295.041     324.563
  C      689.096     294.310     326.849
  O      689.985     293.185     326.699
  C      689.962     295.461     327.362
  O      689.151     296.410     328.040
  C      690.945     294.730     328.260
  O      690.356     294.451     329.557
  C      691.193     293.427     327.483
  N      695.458     291.027     326.212
  C      694.587     290.796     327.259
  N      694.873     289.751     328.054
  N      693.532     291.522     327.501
  C      693.369     292.551     326.631
  C      694.180     292.900     325.563
  C      695.316     292.047     325.277
  O      696.064     292.150     324.301
  N      693.707     294.021     324.923
  C      692.612     294.335     325.587
  N      692.349     293.459     326.617
  O      689.559     297.019     323.006
  O      689.013     294.713     321.994
  H      690.990     293.933     330.092
  H      689.697     297.232     322.062
  H      696.249     290.423     326.062
  H      691.966     295.163     325.344
  H      691.318     292.558     328.155
  H      691.851     295.315     328.456
  H      695.684     289.153     327.950
  H      690.502     295.932     326.534
  H      694.244     289.557     328.825
  H      688.345     294.032     327.594
  H      687.899     293.690     325.176
  H      687.622     295.373     325.677
  P      689.254     297.941     327.564
  C      688.520     299.215     329.713
  O      688.175     298.772     328.413
  O      688.643     297.910     326.078
  O      690.638     298.503     327.567
  H      689.122     298.535     325.514
  H      687.974     300.137     329.914
  H      689.598     299.420     329.800
  H      688.233     298.464     330.444
  H      685.528     296.712     322.555
  H      686.478     295.624     321.572
  H      686.989     297.281     321.784

 3  4  5  6  7  8  9  10  11  12  23  26  30  31 0
 6-311+G(2d,p)
 ****
 33  35  36  37  38 0
 6-311+G(2d,p)
 ****
 1  2  13  14  15  16  17  18  19  20  21  22  24  25 0
 3-21G
 ****
 27  28  29  32  34  39  40  41  42  43  44  45  46  47  48  49 0
 3-21G
 ****


