%nproc=1
%NoSave
%Mem=1900MB
#P OB98/GEN NMR

erre ene a

0 1
  C      -48.767      28.306      79.760
  O      -48.914      29.076      80.938
  H      -49.663      28.433      79.146
  H      -48.651      27.246      79.998
  H      -47.901      28.657      79.191
  P      -47.863      28.845      82.128
  C      -47.326      26.861      83.687
  O      -47.946      27.276      82.473
  C      -46.949      25.381      83.639
  O      -46.111      25.103      82.497
  C      -46.143      24.904      84.837
  O      -46.844      24.907      86.059
  C      -45.553      23.601      84.320
  O      -46.467      22.510      84.426
  C      -45.312      23.946      82.829
  N      -43.899      24.163      82.533
  C      -43.072      23.054      82.659
  O      -43.470      21.946      83.021
  N      -41.747      23.264      82.387
  C      -41.178      24.458      82.055
  O      -39.977      24.584      81.843
  C      -42.097      25.605      81.974
  C      -43.397      25.408      82.211
  O      -48.029      29.738      83.322
  O      -46.439      28.984      81.414
  H      -46.600      22.343      85.380
  H      -45.716      29.105      82.079
  H      -41.133      22.467      82.459
  H      -41.678      26.570      81.726
  H      -44.096      26.240      82.156
  H      -45.669      23.129      82.188
  H      -44.645      23.317      84.857
  H      -45.298      25.591      84.977
  H      -47.871      24.800      83.523
  H      -48.041      27.025      84.501
  H      -46.435      27.473      83.870
  P      -46.136      24.919      87.488
  C      -44.131      23.636      88.572
  O      -45.153      23.657      87.582
  O      -47.006      25.222      88.665
  O      -45.093      26.143      87.324
  H      -45.020      26.576      88.198
  H      -43.574      22.726      88.490
  H      -44.575      23.697      89.544
  H      -43.476      24.469      88.426

 6  7  8  9  10  11  12  13  14  15  16  26  31  32  33  34  35 0
 6-311+G(2d,p)
 ****
 36  37 0
 6-311+G(2d,p)
 ****
 1  2  3  4  5  17  18  19  20  21  22  23  24  25 0
 3-21G
 ****
 27  28  29  30  38  39  40  41  42  43  44  45 0
 3-21G
 ****


