%nproc=1
%NoSave
%Mem=1900MB
#P OB98/GEN NMR

erre ene a

0 1
  C      855.660    -898.230     206.101
  O      856.968    -897.950     205.563
  P      857.317    -896.410     205.260
  C      858.825    -896.310     207.403
  O      857.715    -895.760     206.671
  C      859.974    -895.280     207.452
  O      859.491    -894.050     207.952
  C      861.109    -895.710     208.342
  O      861.939    -896.690     207.707
  C      861.812    -894.370     208.572
  O      862.765    -894.100     207.538
  C      860.631    -893.360     208.542
  N      860.319    -892.830     209.844
  C      860.868    -891.560     210.135
  O      861.562    -891.010     209.300
  N      860.605    -891.000     211.355
  C      859.907    -891.650     212.241
  N      859.683    -891.030     213.436
  C      859.340    -892.980     211.983
  C      859.580    -893.510     210.791
  O      855.906    -895.770     204.947
  O      858.308    -896.210     204.159
  H      863.202    -893.250     207.794
  H      855.989    -894.990     204.339
  H      858.744    -893.470     212.745
  H      859.206    -894.500     210.507
  H      860.874    -892.530     207.885
  H      862.366    -894.360     209.533
  H      860.729    -896.100     209.298
  H      860.329    -895.130     206.419
  H      860.106    -890.140     213.585
  H      859.150    -897.220     206.881
  H      859.124    -891.450     214.174
  H      858.505    -896.580     208.403
  P      862.086    -898.100     208.409
  C      860.579    -899.390     206.774
  O      860.711    -898.880     208.071
  O      861.883    -897.750     209.955
  O      863.354    -898.880     208.140
  H      862.072    -898.540     210.495
  H      859.670    -900.000     206.715
  H      861.426    -899.970     206.478
  H      860.443    -898.540     206.044
  H      855.556    -899.284     206.256
  H      854.912    -897.895     205.413
  H      855.541    -897.719     207.033

 3  4  5  6  7  8  9  10  11  12  13  21  23  27  28  29  30  32 0
 6-311+G(2d,p)
 ****
 34  35 0
 6-311+G(2d,p)
 ****
 1  2  14  15  16  17  18  19  20  22  24  25  26 0
 3-21G
 ****
 31  33  36  37  38  39  40  41  42  43  44  45  46 0
 3-21G
 ****


