%nproc=1
%NoSave
%Mem=1900MB
#P OB98/GEN NMR

erre ene a

0 1
  C      243.832    -898.750    -355.866
  O      242.447    -898.900    -355.635
  H      244.372    -898.950    -354.932
  H      244.053    -897.720    -356.170
  H      244.176    -899.440    -356.630
  P      241.484    -898.870    -356.911
  C      241.446    -896.270    -356.747
  O      241.643    -897.420    -357.572
  C      241.240    -895.020    -357.607
  O      240.005    -895.180    -358.356
  C      241.123    -893.720    -356.809
  O      241.754    -892.670    -357.567
  C      239.639    -893.480    -356.749
  O      239.281    -892.120    -356.533
  C      239.192    -894.000    -358.118
  N      237.773    -894.300    -358.187
  C      236.934    -893.310    -358.665
  O      237.308    -892.240    -359.135
  N      235.591    -893.600    -358.610
  C      235.018    -894.730    -358.124
  O      233.806    -894.920    -358.091
  C      235.952    -895.760    -357.623
  C      237.278    -895.490    -357.667
  O      240.026    -898.830    -356.268
  O      241.649    -900.000    -357.869
  H      239.679    -899.730    -356.118
  H      238.306    -892.050    -356.548
  H      234.964    -892.890    -358.961
  H      235.548    -896.660    -357.205
  H      237.991    -896.210    -357.284
  H      239.453    -893.270    -358.907
  H      239.196    -894.080    -355.954
  H      241.567    -893.770    -355.813
  H      242.036    -894.970    -358.345
  H      242.334    -896.130    -356.122
  H      240.584    -896.440    -356.097
  P      243.343    -892.550    -357.494
  C      243.221    -890.400    -355.998
  O      243.653    -891.740    -356.135
  O      243.621    -891.490    -358.660
  O      244.038    -893.860    -357.639
  H      242.923    -890.820    -358.736
  H      243.513    -890.027    -355.038
  H      242.156    -890.358    -356.088
  H      243.667    -889.801    -356.764

 6  7  8  9  10  11  12  13  14  15  16  27  31  32  33  34  35 0
 6-311+G(2d,p)
 ****
 36  37 0
 6-311+G(2d,p)
 ****
 1  2  3  4  5  17  18  19  20  21  22  23  24  25 0
 3-21G
 ****
 26  28  29  30  38  39  40  41  42  43  44  45 0
 3-21G
 ****


