%nproc=1
%NoSave
%Mem=1900MB
#P OB98/GEN NMR

erre ene a

0 1
  C       53.121       7.234      58.891
  O       51.795       7.195      59.383
  H       53.105       7.648      57.879
  H       53.545       6.227      58.851
  H       53.742       7.876      59.520
  P       51.541       6.587      60.842
  C       50.745       4.264      60.040
  O       51.759       5.003      60.710
  C       50.708       2.829      60.556
  O       51.974       2.180      60.330
  C       50.423       2.706      62.053
  O       49.033       2.810      62.307
  C       50.963       1.312      62.324
  O       50.024       0.328      61.848
  C       52.232       1.290      61.451
  N       56.160      -0.121      64.337
  C       55.038      -0.832      63.961
  N       54.932      -2.087      64.447
  N       54.098      -0.353      63.188
  C       54.302       0.937      62.835
  C       55.363       1.751      63.159
  C       56.429       1.186      63.960
  O       57.453       1.776      64.295
  N       55.177       3.028      62.697
  C       54.029       2.973      62.048
  N       53.451       1.725      62.110
  O       50.249       6.969      61.498
  O       52.810       7.060      61.694
  H       50.432      -0.547      61.984
  H       52.634       7.904      62.149
  H       56.848      -0.541      64.941
  H       53.574       3.799      61.515
  H       52.432       0.293      61.041
  H       51.124       1.118      63.385
  H       55.542      -2.457      65.161
  H       51.004       3.431      62.632
  H       54.088      -2.603      64.229
  H       49.958       2.282      59.969
  H       50.977       4.280      58.971
  H       49.767       4.734      60.192
  P       48.471       3.609      63.584
  C       48.528       1.448      65.003
  O       48.980       2.783      64.860
  O       47.006       3.876      63.559
  O       49.375       4.923      63.657
  H       49.041       5.654      63.080
  H       48.945       1.024      65.892
  H       48.838       0.874      64.155
  H       47.460       1.438      65.070

 6  7  8  9  10  11  12  13  14  15  26  29  33  34 0
 6-311+G(2d,p)
 ****
 36  38  39  40  41 0
 6-311+G(2d,p)
 ****
 1  2  3  4  5  16  17  18  19  20  21  22  23  24  25 0
 3-21G
 ****
 27  28  30  31  32  35  37  42  43  44  45  46  47 0
 3-21G
 ****
 48  49 0
 3-21G
 ****


