%nproc=1
%NoSave
%Mem=1900MB
#P OB98/GEN NMR

erre ene a

0 1
  C     -757.342     350.791     161.442
  O     -757.953     351.928     162.021
  H     -757.860     349.899     161.801
  H     -756.297     350.734     161.754
  H     -757.408     350.828     160.352
  P     -757.458     353.366     161.515
  C     -759.674     354.011     160.319
  O     -758.772     354.285     161.380
  C     -761.102     354.376     160.727
  O     -761.632     353.323     161.577
  C     -761.208     355.696     161.492
  O     -762.398     356.378     161.085
  C     -761.348     355.262     162.943
  O     -762.002     356.240     163.749
  C     -762.102     353.932     162.796
  N     -761.884     353.065     163.953
  C     -762.696     353.307     165.075
  O     -763.535     354.214     165.055
  N     -762.501     352.546     166.203
  C     -761.532     351.691     166.243
  N     -761.373     350.997     167.405
  C     -760.611     351.455     165.113
  C     -760.848     352.166     164.001
  O     -757.042     353.104     159.993
  O     -756.355     353.982     162.315
  H     -762.891     356.417     163.355
  H     -756.309     353.696     159.722
  H     -759.800     350.750     165.201
  H     -760.220     352.067     163.134
  H     -763.184     354.116     162.688
  H     -760.353     355.088     163.372
  H     -760.342     356.351     161.342
  H     -761.729     354.402     159.824
  H     -762.011     351.198     168.165
  H     -759.633     352.945     160.087
  H     -760.627     350.343     167.571
  H     -759.371     354.577     159.435
  P     -762.515     357.928     161.470
  C     -762.535     358.869     159.037
  O     -763.253     358.688     160.265
  O     -761.000     358.444     161.377
  O     -763.099     358.168     162.820
  H     -760.657     358.620     162.274
  H     -763.154     359.388     158.335
  H     -762.266     357.914     158.637
  H     -761.650     359.440     159.222

 6  7  8  9  10  11  12  13  14  15  16  26  30  31  32  33  35 0
 6-311+G(2d,p)
 ****
 37  38 0
 6-311+G(2d,p)
 ****
 1  2  3  4  5  17  18  19  20  21  22  23  24  25 0
 3-21G
 ****
 27  28  29  34  36  39  40  41  42  43  44  45  46 0
 3-21G
 ****


