%nproc=1
%NoSave
%Mem=1900MB
#P OB98/GEN NMR

erre ene a

0 1
  C      -80.858     411.577      15.365
  O      -79.479     411.707      15.076
  H      -81.070     412.104      16.300
  H      -81.129     410.524      15.486
  H      -81.458     412.026      14.568
  P      -78.899     410.983      13.769
  C      -78.458     413.180      12.479
  O      -79.206     411.971      12.539
  C      -77.539     413.174      11.256
  O      -78.316     413.225      10.045
  C      -76.568     414.354      11.196
  O      -75.438     414.111      12.022
  C      -76.223     414.352       9.716
  O      -75.284     413.289       9.436
  C      -77.584     414.032       9.076
  N      -79.003     417.189       5.357
  C      -78.051     416.191       5.355
  N      -77.353     416.028       4.208
  N      -77.791     415.423       6.386
  C      -78.515     415.747       7.485
  C      -79.476     416.727       7.616
  C      -79.798     417.519       6.449
  O      -80.656     418.402       6.404
  N      -79.929     416.818       8.912
  C      -79.280     415.860       9.545
  N      -78.401     415.184       8.728
  O      -79.351     409.573      13.542
  O      -77.309     411.085      13.933
  H      -74.487     413.464       9.970
  H      -76.948     410.296      14.377
  H      -79.153     417.751       4.536
  H      -79.408     415.609      10.596
  H      -77.479     413.433       8.161
  H      -75.757     415.286       9.387
  H      -77.401     416.677       3.432
  H      -77.065     415.297      11.446
  H      -76.608     415.337       4.207
  H      -76.996     412.216      11.250
  H      -77.871     413.251      13.403
  H      -79.130     414.043      12.431
  P      -74.415     415.289      12.413
  C      -75.698     415.755      14.620
  O      -75.252     416.272      13.375
  O      -73.761     415.962      11.256
  O      -73.402     414.609      13.442
  H      -72.655     414.138      12.989
  H      -76.236     416.514      15.149
  H      -74.854     415.445      15.201
  H      -76.340     414.916      14.449

 6  7  8  9  10  11  12  13  14  15  26  29  33  34 0
 6-311+G(2d,p)
 ****
 36  38  39  40  41 0
 6-311+G(2d,p)
 ****
 1  2  3  4  5  16  17  18  19  20  21  22  23  24  25 0
 3-21G
 ****
 27  28  30  31  32  35  37  42  43  44  45  46  47 0
 3-21G
 ****
 48  49 0
 3-21G
 ****


