%nproc=1
%NoSave
%Mem=1900MB
#P OB98/GEN NMR

erre ene a

0 1
  C     -894.430    -192.207    -899.380
  O     -894.260    -191.688    -898.070
  H     -894.890    -191.440    -900.000
  H     -895.090    -193.076    -899.360
  H     -893.460    -192.482    -899.810
  P     -893.450    -192.593    -897.020
  C     -892.170    -190.915    -895.510
  O     -892.120    -191.782    -896.630
  C     -892.100    -189.452    -895.960
  O     -893.320    -189.119    -896.680
  C     -891.950    -188.453    -894.800
  O     -891.070    -187.403    -895.200
  C     -893.360    -187.899    -894.630
  O     -893.370    -186.604    -894.030
  C     -893.890    -187.953    -896.070
  N     -895.350    -187.992    -896.100
  C     -896.010    -186.757    -896.120
  O     -895.360    -185.709    -896.110
  N     -897.380    -186.736    -896.100
  C     -898.030    -187.847    -895.970
  N     -899.400    -187.759    -895.920
  C     -897.380    -189.172    -895.880
  C     -896.060    -189.173    -895.950
  O     -892.910    -193.803    -897.910
  O     -894.250    -193.069    -895.850
  H     -892.600    -186.107    -894.390
  H     -892.840    -194.626    -897.390
  H     -897.980    -190.071    -895.750
  H     -895.480    -190.091    -895.880
  H     -893.550    -187.082    -896.630
  H     -893.940    -188.571    -893.980
  H     -891.570    -188.917    -893.890
  H     -891.270    -189.345    -896.670
  H     -899.810    -186.842    -895.980
  H     -891.320    -191.133    -894.870
  H     -900.000    -188.559    -895.790
  H     -893.100    -191.093    -894.950
  P     -889.510    -187.753    -895.270
  C     -888.730    -187.853    -897.750
  O     -889.230    -188.573    -896.630
  O     -889.340    -188.854    -894.120
  O     -888.630    -186.571    -895.040
  H     -888.850    -188.476    -893.360
  H     -888.594    -188.523    -898.573
  H     -887.792    -187.405    -897.496
  H     -889.428    -187.089    -898.023

 6  7  8  9  10  11  12  13  14  15  16  26  30  31  32  33  35 0
 6-311+G(2d,p)
 ****
 37  38 0
 6-311+G(2d,p)
 ****
 1  2  3  4  5  17  18  19  20  21  22  23  24  25 0
 3-21G
 ****
 27  28  29  34  36  39  40  41  42  43  44  45  46 0
 3-21G
 ****


