%nproc=1
%NoSave
%Mem=1900MB
#P OB98/GEN NMR

erre ene a

0 1
  C       15.090     -71.354     -36.171
  O       13.752     -71.401     -36.662
  P       12.955     -72.743     -36.996
  C       10.421     -73.400     -36.856
  O       11.396     -72.391     -37.070
  C        9.027     -72.834     -36.532
  O        9.081     -72.106     -35.277
  C        8.595     -71.828     -37.599
  O        8.003     -72.278     -38.802
  C        7.762     -70.801     -36.845
  O        6.364     -71.090     -36.888
  C        8.285     -70.910     -35.410
  N        8.306     -65.890     -34.422
  C        7.282     -66.680     -34.905
  N        6.129     -66.050     -35.213
  N        7.387     -67.968     -35.086
  C        8.619     -68.457     -34.823
  C        9.719     -67.772     -34.359
  C        9.576     -66.354     -34.106
  O       10.447     -65.610     -33.667
  N       10.806     -68.597     -34.228
  C       10.374     -69.772     -34.635
  N        9.047     -69.741     -35.001
  O       13.341     -73.939     -36.194
  O       13.352     -73.037     -38.533
  H        5.903     -70.423     -36.350
  H       13.362     -74.010     -38.636
  H        8.164     -64.905     -34.278
  H       10.973     -70.675     -34.679
  H        7.460     -71.006     -34.694
  H        7.887     -69.805     -37.287
  H        6.024     -65.047     -35.209
  H        9.499     -71.292     -37.917
  H        5.455     -66.582     -35.766
  H        8.306     -73.640     -36.379
  H       10.783     -74.020     -36.031
  H       10.359     -74.051     -37.729
  P        8.688     -72.285     -40.250
  C        9.142     -74.091     -42.011
  O        8.271     -73.643     -40.987
  O       10.241     -72.517     -39.942
  O        8.484     -71.041     -41.051
  H       10.781     -72.283     -40.720
  H        8.615     -74.820     -42.631
  H       10.017     -74.569     -41.564
  H        9.465     -73.255     -42.641
  H       15.383     -70.334     -36.032
  H       15.745     -71.820     -36.877
  H       15.145     -71.872     -35.236

 3  4  5  6  7  8  9  10  11  12  23  26  30  31 0
 6-311+G(2d,p)
 ****
 33  35  36  37  38 0
 6-311+G(2d,p)
 ****
 1  2  13  14  15  16  17  18  19  20  21  22  24  25 0
 3-21G
 ****
 27  28  29  32  34  39  40  41  42  43  44  45  46  47  48  49 0
 3-21G
 ****


