%nproc=1
%NoSave
%Mem=1900MB
#P OB98/GEN NMR

erre ene a

0 1
  C      -90.495     186.689    -356.003
  O      -91.368     185.625    -356.320
  H      -90.528     187.421    -356.817
  H      -89.471     186.320    -355.906
  H      -90.809     187.177    -355.077
  P      -91.493     184.435    -355.239
  C      -89.940     182.888    -356.642
  O      -90.145     183.572    -355.411
  C      -89.394     181.480    -356.383
  O      -88.002     181.579    -355.990
  C      -90.142     180.733    -355.269
  O      -90.353     179.378    -355.674
  C      -89.197     180.803    -354.082
  O      -89.396     179.717    -353.170
  C      -87.823     180.848    -354.764
  N      -86.815     181.478    -353.909
  C      -86.293     180.701    -352.870
  O      -86.696     179.545    -352.695
  N      -85.376     181.261    -352.014
  C      -85.046     182.505    -352.154
  N      -84.149     183.012    -351.264
  C      -85.607     183.381    -353.204
  C      -86.471     182.806    -354.046
  O      -92.629     183.501    -355.870
  O      -91.778     184.877    -353.840
  H      -88.750     179.822    -352.435
  H      -92.962     182.843    -355.210
  H      -85.317     184.420    -353.271
  H      -86.934     183.372    -354.849
  H      -87.482     179.833    -355.015
  H      -89.369     181.735    -353.533
  H      -91.102     181.184    -355.026
  H      -89.417     180.917    -357.325
  H      -83.793     182.385    -350.551
  H      -89.232     183.452    -357.250
  H      -83.845     183.974    -351.262
  H      -90.897     182.811    -357.173
  P      -91.382     179.158    -356.886
  C      -93.152     177.821    -355.539
  O      -92.857     179.015    -356.255
  O      -91.043     177.685    -357.407
  O      -91.269     180.189    -357.964
  H      -90.471     177.724    -358.198
  H      -94.158     177.861    -355.178
  H      -92.480     177.726    -354.712
  H      -93.039     176.978    -356.189

 6  7  8  9  10  11  12  13  14  15  16  26  30  31  32  33  35 0
 6-311+G(2d,p)
 ****
 37  38 0
 6-311+G(2d,p)
 ****
 1  2  3  4  5  17  18  19  20  21  22  23  24  25 0
 3-21G
 ****
 27  28  29  34  36  39  40  41  42  43  44  45  46 0
 3-21G
 ****


