%nproc=1
%NoSave
%Mem=1900MB
#P OB98/GEN NMR

erre ene a

0 1
  C      359.747     255.348     185.470
  O      359.591     255.619     186.847
  H      360.163     254.345     185.358
  H      360.442     256.068     185.029
  H      358.790     255.391     184.948
  P      358.709     256.877     187.291
  C      360.710     257.742     188.673
  O      359.326     257.424     188.667
  C      361.079     258.547     189.927
  O      360.294     259.768     189.949
  C      360.741     257.776     191.206
  O      361.585     258.145     192.293
  C      359.321     258.234     191.509
  O      358.964     258.077     192.882
  C      359.367     259.688     191.044
  N      354.650     260.982     192.477
  C      355.621     260.304     193.185
  N      355.293     259.926     194.442
  N      356.796     260.006     192.700
  C      356.960     260.383     191.410
  C      356.066     261.037     190.594
  C      354.778     261.394     191.156
  O      353.873     261.973     190.566
  N      356.583     261.245     189.340
  C      357.786     260.711     189.393
  N      358.074     260.198     190.632
  O      357.328     256.219     187.770
  O      358.486     257.918     186.234
  H      358.025     258.324     192.967
  H      356.609     256.876     187.732
  H      353.772     261.211     192.908
  H      358.491     260.684     188.571
  H      359.740     260.338     191.846
  H      358.632     257.619     190.924
  H      354.342     259.962     194.776
  H      360.784     256.697     191.074
  H      355.857     259.175     194.852
  H      362.131     258.848     189.884
  H      360.907     258.326     187.771
  H      361.311     256.832     188.611
  P      362.869     257.238     192.606
  C      362.138     256.150     194.907
  O      362.996     257.000     194.180
  O      364.101     258.193     192.262
  O      362.923     255.956     191.834
  H      364.608     257.837     191.508
  H      362.421     256.155     195.939
  H      362.212     255.154     194.522
  H      361.130     256.495     194.812

 6  7  8  9  10  11  12  13  14  15  26  29  33  34 0
 6-311+G(2d,p)
 ****
 36  38  39  40  41 0
 6-311+G(2d,p)
 ****
 1  2  3  4  5  16  17  18  19  20  21  22  23  24  25 0
 3-21G
 ****
 27  28  30  31  32  35  37  42  43  44  45  46  47 0
 3-21G
 ****
 48  49 0
 3-21G
 ****


