%nproc=1
%NoSave
%Mem=1900MB
#P OB98/GEN NMR

erre ene a

0 1
  C     -208.193      50.288      70.720
  O     -209.074      49.616      71.600
  H     -207.327      49.646      70.533
  H     -207.845      51.223      71.168
  H     -208.688      50.495      69.768
  P     -210.427      50.358      72.034
  C     -210.994      52.396      73.519
  O     -209.995      51.473      73.104
  C     -210.609      53.020      74.857
  O     -210.532      52.006      75.878
  C     -209.254      53.726      74.843
  O     -209.378      55.025      74.284
  C     -208.938      53.743      76.330
  O     -209.711      54.771      76.981
  C     -209.431      52.350      76.766
  N     -206.997      48.704      79.317
  C     -207.926      49.630      79.760
  N     -208.214      49.604      81.079
  N     -208.504      50.510      78.982
  C     -208.064      50.461      77.703
  C     -207.139      49.604      77.150
  C     -206.549      48.595      78.007
  O     -205.735      47.746      77.652
  N     -206.903      49.899      75.831
  C     -207.710      50.909      75.577
  N     -208.429      51.299      76.684
  O     -211.550      49.480      72.498
  O     -210.829      51.218      70.747
  H     -209.399      55.623      76.622
  H     -211.438      50.724      70.168
  H     -206.576      48.063      79.969
  H     -207.817      51.393      74.614
  H     -209.820      52.348      77.792
  H     -207.887      53.940      76.544
  H     -207.602      49.154      81.751
  H     -208.488      53.131      74.331
  H     -208.852      50.307      81.431
  H     -211.412      53.710      75.148
  H     -211.937      51.844      73.610
  H     -211.120      53.185      72.769
  P     -208.422      55.505      73.084
  C     -205.900      56.041      72.889
  O     -206.964      55.628      73.738
  O     -208.888      56.726      72.362
  O     -208.275      54.219      72.148
  H     -208.981      54.148      71.457
  H     -204.990      56.080      73.451
  H     -206.116      57.011      72.492
  H     -205.793      55.343      72.086

 6  7  8  9  10  11  12  13  14  15  26  29  33  34 0
 6-311+G(2d,p)
 ****
 36  38  39  40  41 0
 6-311+G(2d,p)
 ****
 1  2  3  4  5  16  17  18  19  20  21  22  23  24  25 0
 3-21G
 ****
 27  28  30  31  32  35  37  42  43  44  45  46  47 0
 3-21G
 ****
 48  49 0
 3-21G
 ****


