%nproc=1
%NoSave
%Mem=1900MB
#P OB98/GEN NMR

erre ene a

0 1
  C      151.841      -6.299      40.310
  O      152.609      -5.964      39.152
  P      153.892      -5.026      39.375
  C      153.507      -3.141      37.642
  O      154.242      -4.307      37.982
  C      153.692      -2.774      36.165
  O      155.067      -2.372      35.899
  C      153.371      -3.921      35.202
  O      152.821      -3.347      34.009
  C      154.737      -4.492      34.883
  O      154.718      -5.262      33.682
  C      155.565      -3.210      34.835
  N      159.925      -4.203      32.375
  C      158.666      -3.996      31.935
  N      157.550      -3.758      32.660
  C      157.846      -3.704      33.970
  C      159.078      -3.905      34.568
  C      160.157      -4.169      33.708
  N      161.435      -4.408      34.156
  N      158.971      -3.816      35.942
  C      157.695      -3.572      36.165
  N      156.983      -3.464      35.005
  O      155.083      -6.078      39.566
  O      153.776      -4.114      40.552
  H      155.591      -5.697      33.584
  H      155.367      -6.092      40.499
  H      158.534      -4.029      30.856
  H      157.240      -3.470      37.138
  H      155.446      -2.670      33.888
  H      155.070      -5.143      35.701
  H      152.684      -4.674      35.601
  H      153.050      -1.914      35.939
  H      153.831      -2.299      38.261
  H      162.147      -4.619      33.476
  H      161.612      -4.431      35.149
  H      152.451      -3.301      37.882
  P      151.246      -3.057      34.013
  C      150.507      -3.874      31.665
  O      150.838      -2.775      32.491
  O      151.128      -1.622      34.712
  O      150.436      -4.093      34.722
  H      150.252      -1.521      35.126
  H      149.656      -3.599      31.036
  H      150.244      -4.764      32.246
  H      151.361      -4.108      31.024
  H      151.020      -6.924      40.025
  H      151.468      -5.404      40.762
  H      152.460      -6.820      41.010

 3  4  5  6  7  8  9  10  11  12  22  25  29  30  31  32 0
 6-311+G(2d,p)
 ****
 33  36  37 0
 6-311+G(2d,p)
 ****
 1  2  13  14  15  16  17  18  19  20  21  23  24  26 0
 3-21G
 ****
 27  28  34  35  38  39  40  41  42  43  44  45  46  47  48 0
 3-21G
 ****


