%nproc=1
%NoSave
%Mem=1900MB
#P OB98/GEN NMR

erre ene a

0 1
  C      342.949     321.891     312.763
  O      343.013     321.820     311.350
  P      341.643     322.041     310.536
  C      340.020     320.381     309.319
  O      340.971     320.582     310.374
  C      338.812     319.613     309.819
  O      339.153     318.198     309.985
  C      338.239     320.125     311.132
  O      336.811     320.029     311.079
  C      338.744     319.146     312.157
  O      337.924     319.094     313.327
  C      338.771     317.848     311.328
  N      339.677     316.840     311.899
  C      339.209     316.087     312.965
  O      338.089     316.328     313.455
  N      340.007     315.098     313.507
  C      341.238     314.974     313.071
  N      341.987     313.977     313.632
  C      341.814     315.816     312.004
  C      340.978     316.695     311.472
  O      342.152     322.378     309.060
  O      340.754     323.105     311.085
  H      337.982     319.957     313.782
  H      341.542     322.992     308.616
  H      342.842     315.690     311.715
  H      341.295     317.364     310.672
  H      337.754     317.386     311.305
  H      339.764     319.407     312.471
  H      338.514     321.167     311.349
  H      338.046     319.640     309.026
  H      341.559     313.417     314.366
  H      340.514     319.783     308.542
  H      342.934     313.809     313.356
  H      339.750     321.327     308.903
  P      335.956     321.365     311.376
  C      335.649     322.901     313.422
  O      336.253     321.720     312.897
  O      334.459     320.756     311.481
  O      335.998     322.470     310.362
  H      333.817     321.479     311.599
  H      335.844     322.952     314.486
  H      334.561     322.881     313.238
  H      336.078     323.783     312.926
  H      343.924     321.727     313.173
  H      342.278     321.142     313.128
  H      342.597     322.858     313.056

 3  4  5  6  7  8  9  10  11  12  13  21  23  27  28  29  30  32 0
 6-311+G(2d,p)
 ****
 34  35 0
 6-311+G(2d,p)
 ****
 1  2  14  15  16  17  18  19  20  22  24  25  26 0
 3-21G
 ****
 31  33  36  37  38  39  40  41  42  43  44  45  46 0
 3-21G
 ****


