%nproc=1
%NoSave
%Mem=1900MB
#P OB98/GEN NMR

erre ene a

0 1
  C     -266.860     -43.764    -385.926
  O     -265.968     -44.826    -385.598
  P     -265.772     -45.233    -384.057
  C     -263.947     -43.574    -383.337
  O     -265.321     -43.932    -383.232
  C     -263.623     -42.277    -382.577
  O     -263.966     -42.396    -381.166
  C     -262.148     -41.859    -382.649
  O     -262.119     -40.425    -382.693
  C     -261.601     -42.363    -381.325
  O     -260.377     -41.745    -380.970
  C     -262.791     -42.064    -380.409
  N     -262.729     -42.810    -379.156
  C     -261.864     -42.336    -378.174
  O     -261.114     -41.387    -378.417
  N     -261.849     -42.964    -376.953
  C     -262.525     -44.057    -376.789
  N     -262.499     -44.642    -375.559
  C     -263.314     -44.691    -377.866
  C     -263.387     -44.006    -379.000
  O     -264.948     -46.452    -383.815
  O     -267.286     -45.456    -383.553
  H     -260.510     -40.775    -380.917
  H     -267.296     -46.178    -382.892
  H     -263.792     -45.641    -377.707
  H     -263.948     -44.379    -379.848
  H     -262.845     -40.996    -380.175
  H     -261.425     -43.446    -381.389
  H     -261.622     -42.250    -383.525
  H     -264.247     -41.476    -382.997
  H     -261.940     -44.210    -374.836
  H     -263.692     -43.442    -384.389
  H     -263.044     -45.467    -375.333
  H     -263.331     -44.405    -382.971
  P     -261.999     -39.696    -384.119
  C     -259.422     -39.666    -384.467
  O     -260.671     -40.224    -384.841
  O     -261.583     -38.208    -383.690
  O     -263.247     -39.664    -384.944
  H     -261.860     -37.587    -384.393
  H     -258.622     -40.316    -384.829
  H     -259.333     -39.582    -383.379
  H     -259.306     -38.676    -384.919
  H     -266.873     -43.624    -386.987
  H     -266.532     -42.863    -385.451
  H     -267.845     -44.008    -385.586

 3  4  5  6  7  8  9  10  11  12  13  23  27  28  29  30  32 0
 6-311+G(2d,p)
 ****
 34  35 0
 6-311+G(2d,p)
 ****
 1  2  14  15  16  17  18  19  20  21  22  24  25  26 0
 3-21G
 ****
 31  33  36  37  38  39  40  41  42  43  44  45  46 0
 3-21G
 ****


