%nproc=1
%NoSave
%Mem=1900MB
#P OB98/GEN NMR

erre ene a

0 1
  C      248.264     132.831    1130.140
  O      248.891     132.901    1131.408
  P      247.943     133.219    1132.668
  C      249.851     131.962    1133.900
  O      248.799     132.920    1133.986
  C      250.447     131.717    1135.295
  O      249.390     131.358    1136.228
  C      251.472     130.561    1135.362
  O      252.712     130.951    1134.829
  C      251.471     130.294    1136.870
  O      252.286     131.276    1137.541
  C      249.989     130.500    1137.244
  N      249.827     125.799    1139.283
  C      250.733     126.810    1139.409
  N      250.709     128.018    1138.828
  C      249.627     128.155    1138.035
  C      248.641     127.206    1137.801
  C      248.754     125.992    1138.476
  N      247.844     124.961    1138.355
  N      247.693     127.683    1136.934
  C      248.099     128.908    1136.646
  N      249.249     129.249    1137.307
  O      246.864     132.026    1132.648
  O      247.282     134.567    1132.630
  H      253.154     131.297    1137.086
  H      245.988     132.347    1132.946
  H      251.556     126.603    1140.063
  H      247.576     129.608    1135.992
  H      249.852     131.004    1138.216
  H      251.854     129.306    1137.118
  H      251.063     129.683    1134.836
  H      250.903     132.641    1135.646
  H      250.648     132.333    1133.251
  H      248.081     124.067    1138.755
  H      247.120     125.041    1137.646
  H      249.441     131.029    1133.491
  P      253.363     129.981    1133.706
  C      254.458     132.174    1132.929
  O      254.646     130.791    1133.200
  O      252.323     130.160    1132.490
  O      253.595     128.572    1134.148
  H      252.125     131.080    1132.298
  H      255.394     132.601    1132.657
  H      254.066     132.689    1133.801
  H      253.743     132.284    1132.080
  H      248.997     132.615    1129.391
  H      247.796     133.768    1129.921
  H      247.525     132.057    1130.150

 3  4  5  6  7  8  9  10  11  12  22  25  29  30  31  32 0
 6-311+G(2d,p)
 ****
 33  36  37 0
 6-311+G(2d,p)
 ****
 1  2  13  14  15  16  17  18  19  20  21  23  24  26 0
 3-21G
 ****
 27  28  34  35  38  39  40  41  42  43  44  45  46  47  48 0
 3-21G
 ****


