%nproc=1
%NoSave
%Mem=1900MB
#P OB98/GEN NMR

erre ene a

0 1
  C       31.390    -178.244      25.742
  O       32.246    -177.904      26.837
  P       33.355    -176.776      26.546
  C       32.588    -174.392      27.224
  O       33.175    -175.613      27.646
  C       32.255    -173.486      28.419
  O       31.477    -174.211      29.424
  C       33.493    -172.922      29.132
  O       33.145    -171.609      29.591
  C       33.640    -173.846      30.329
  O       34.450    -173.258      31.352
  C       32.164    -174.046      30.688
  N       28.718    -176.336      33.585
  C       28.654    -175.132      32.919
  N       27.484    -174.462      32.988
  N       29.651    -174.630      32.235
  C       30.753    -175.426      32.219
  C       30.931    -176.647      32.833
  C       29.827    -177.177      33.614
  O       29.831    -178.241      34.224
  N       32.177    -177.175      32.560
  C       32.763    -176.229      31.838
  N       31.922    -175.181      31.558
  O       32.838    -176.104      25.189
  O       34.742    -177.316      26.408
  H       34.449    -173.879      32.115
  H       33.346    -176.447      24.429
  H       27.923    -176.668      34.116
  H       33.778    -176.267      31.475
  H       31.737    -173.171      31.199
  H       34.100    -174.796      30.025
  H       26.658    -174.819      33.455
  H       34.396    -172.885      28.514
  H       27.395    -173.593      32.468
  H       31.629    -172.657      28.059
  H       31.668    -174.590      26.661
  H       33.267    -173.889      26.526
  P       33.804    -170.352      28.837
  C       32.500    -168.824      27.197
  O       32.615    -169.317      28.520
  O       34.174    -170.952      27.396
  O       35.010    -169.777      29.509
  H       35.031    -170.581      27.100
  H       31.456    -168.543      27.015
  H       32.791    -169.573      26.453
  H       33.126    -167.934      27.079
  H       30.698    -178.999      26.051
  H       31.980    -178.612      24.929
  H       30.852    -177.375      25.427

 3  4  5  6  7  8  9  10  11  12  23  26  30  31 0
 6-311+G(2d,p)
 ****
 33  35  36  37  38 0
 6-311+G(2d,p)
 ****
 1  2  13  14  15  16  17  18  19  20  21  22  24  25 0
 3-21G
 ****
 27  28  29  32  34  39  40  41  42  43  44  45  46  47  48  49 0
 3-21G
 ****


