%nproc=1
%NoSave
%Mem=1900MB
#P OB98/GEN NMR

erre ene a

0 1
  C      466.402     -57.164      56.440
  O      467.251     -56.885      57.541
  P      468.727     -57.517      57.510
  C      468.014     -59.585      58.925
  O      468.534     -59.102      57.691
  C      468.183     -61.098      59.015
  O      467.325     -61.751      58.067
  C      469.591     -61.584      58.691
  O      470.455     -61.360      59.789
  C      469.339     -63.059      58.388
  O      469.355     -63.846      59.594
  C      467.921     -63.033      57.766
  N      467.937     -63.293      56.329
  C      467.616     -64.603      55.946
  O      467.365     -65.455      56.801
  N      467.633     -64.913      54.607
  C      467.946     -64.007      53.739
  N      467.939     -64.370      52.423
  C      468.306     -62.619      54.105
  C      468.294     -62.338      55.405
  O      469.352     -57.063      58.913
  O      469.568     -57.090      56.348
  H      468.616     -63.501      60.140
  H      470.321     -57.003      58.864
  H      468.558     -61.908      53.336
  H      468.547     -61.350      55.765
  H      467.283     -63.791      58.241
  H      470.102     -63.472      57.724
  H      469.974     -61.080      57.798
  H      467.886     -61.418      60.026
  H      467.689     -65.330      52.204
  H      466.949     -59.344      58.983
  H      468.144     -63.729      51.669
  H      468.532     -59.090      59.748
  P      471.971     -60.944      59.469
  C      472.912     -63.304      59.834
  O      472.651     -62.274      58.896
  O      472.608     -60.844      60.943
  O      472.176     -59.693      58.683
  H      473.517     -60.495      60.885
  H      473.227     -64.196      59.286
  H      472.004     -63.536      60.402
  H      473.717     -62.998      60.504
  H      465.457     -56.685      56.588
  H      466.258     -58.221      56.360
  H      466.851     -56.796      55.541

 3  4  5  6  7  8  9  10  11  12  13  21  23  27  28  29  30  32 0
 6-311+G(2d,p)
 ****
 34  35 0
 6-311+G(2d,p)
 ****
 1  2  14  15  16  17  18  19  20  22  24  25  26 0
 3-21G
 ****
 31  33  36  37  38  39  40  41  42  43  44  45  46 0
 3-21G
 ****


