%nproc=1
%NoSave
%Mem=1900MB
#P OB98/GEN NMR

erre ene a

0 1
  C      -37.569     105.255      66.078
  O      -37.171     104.164      66.884
  H      -37.652     106.145      66.707
  H      -38.542     105.053      65.623
  H      -36.825     105.439      65.299
  P      -37.053     102.743      66.148
  C      -35.193     103.719      64.630
  O      -36.438     103.037      64.695
  C      -34.312     103.117      63.539
  O      -33.097     103.882      63.385
  C      -33.894     101.673      63.793
  O      -34.905     100.771      63.378
  C      -32.634     101.577      62.945
  O      -32.962     101.373      61.554
  C      -31.998     102.958      63.156
  N      -27.696     105.081      64.728
  C      -28.341     105.169      63.511
  N      -27.736     105.912      62.557
  N      -29.472     104.573      63.242
  C      -29.932     103.818      64.267
  C      -29.386     103.647      65.518
  C      -28.162     104.357      65.819
  O      -27.587     104.385      66.903
  N      -30.160     102.816      66.288
  C      -31.150     102.460      65.493
  N      -31.054     103.038      64.253
  O      -38.577     102.359      65.831
  O      -36.380     101.669      66.932
  H      -32.142     101.220      61.052
  H      -38.689     101.398      65.954
  H      -26.844     105.586      64.888
  H      -31.962     101.800      65.768
  H      -31.467     103.303      62.262
  H      -32.014     100.730      63.241
  H      -26.755     106.144      62.602
  H      -33.633     101.518      64.847
  H      -28.173     105.915      61.644
  H      -34.862     103.197      62.592
  H      -34.689     103.626      65.597
  H      -35.372     104.777      64.419
  P      -34.643      99.202      63.565
  C      -36.357      98.880      65.488
  O      -34.998      98.819      65.083
  O      -33.046      99.098      63.514
  O      -35.268      98.338      62.523
  H      -32.766      98.727      62.657
  H      -36.435      98.599      66.518
  H      -36.938      98.209      64.890
  H      -36.722      99.878      65.362

 6  7  8  9  10  11  12  13  14  15  26  29  33  34 0
 6-311+G(2d,p)
 ****
 36  38  39  40  41 0
 6-311+G(2d,p)
 ****
 1  2  3  4  5  16  17  18  19  20  21  22  23  24  25 0
 3-21G
 ****
 27  28  30  31  32  35  37  42  43  44  45  46  47 0
 3-21G
 ****
 48  49 0
 3-21G
 ****


