%nproc=1
%NoSave
%Mem=1900MB
#P OB98/GEN NMR

erre ene a

0 1
  C     -332.252    -190.608      65.238
  O     -332.611    -191.674      66.087
  H     -332.500    -190.886      64.208
  H     -331.176    -190.421      65.291
  H     -332.805    -189.703      65.499
  P     -332.318    -191.558      67.662
  C     -331.396    -193.913      68.093
  O     -332.513    -193.048      68.240
  C     -331.816    -195.381      68.204
  O     -332.425    -195.613      69.503
  C     -332.829    -195.816      67.133
  O     -332.423    -197.060      66.559
  C     -334.116    -196.014      67.920
  O     -335.023    -196.912      67.288
  C     -333.560    -196.467      69.273
  N     -334.554    -196.370      70.335
  C     -335.524    -197.377      70.362
  O     -335.504    -198.283      69.528
  N     -336.523    -197.307      71.300
  C     -336.576    -196.294      72.107
  N     -337.608    -196.269      72.992
  C     -335.589    -195.194      72.091
  C     -334.612    -195.298      71.190
  O     -333.100    -190.500      68.364
  O     -330.736    -191.344      67.769
  H     -335.827    -196.990      67.850
  H     -330.529    -190.921      68.635
  H     -335.681    -194.368      72.781
  H     -333.842    -194.538      71.103
  H     -333.202    -197.504      69.221
  H     -334.624    -195.046      68.032
  H     -332.955    -195.081      66.338
  H     -330.914    -196.004      68.172
  H     -338.265    -197.040      72.962
  H     -330.657    -193.666      68.866
  H     -337.767    -195.522      73.651
  H     -330.953    -193.744      67.105
  P     -330.919    -197.126      66.003
  C     -330.968    -198.687      63.930
  O     -330.707    -198.561      65.321
  O     -330.035    -197.193      67.336
  O     -330.547    -195.954      65.156
  H     -329.548    -196.354      67.454
  H     -330.783    -199.695      63.622
  H     -330.328    -198.025      63.386
  H     -331.990    -198.436      63.735

 6  7  8  9  10  11  12  13  14  15  16  26  30  31  32  33  35 0
 6-311+G(2d,p)
 ****
 37  38 0
 6-311+G(2d,p)
 ****
 1  2  3  4  5  17  18  19  20  21  22  23  24  25 0
 3-21G
 ****
 27  28  29  34  36  39  40  41  42  43  44  45  46 0
 3-21G
 ****


