%nproc=1
%NoSave
%Mem=1900MB
#P OB98/GEN NMR

erre ene a

0 1
  C     -857.487    -806.580    2424.009
  O     -856.619    -805.569    2424.516
  H     -858.081    -806.978    2424.829
  H     -856.895    -807.390    2423.578
  H     -858.153    -806.164    2423.239
  P     -855.706    -804.791    2423.440
  C     -856.068    -802.333    2424.179
  O     -856.388    -803.348    2423.253
  C     -857.241    -802.042    2425.113
  O     -857.557    -803.257    2425.875
  C     -857.006    -800.914    2426.137
  O     -858.252    -800.203    2426.310
  C     -856.692    -801.666    2427.409
  O     -856.909    -800.880    2428.585
  C     -857.634    -802.862    2427.280
  N     -857.940    -804.491    2432.016
  C     -858.453    -803.376    2431.428
  N     -859.174    -802.543    2432.218
  N     -858.309    -803.057    2430.154
  C     -857.593    -804.011    2429.473
  C     -857.030    -805.155    2429.922
  C     -857.166    -805.453    2431.373
  O     -856.727    -806.439    2431.942
  N     -856.368    -805.811    2428.960
  C     -856.532    -805.079    2427.860
  N     -857.265    -803.946    2428.154
  O     -856.046    -805.568    2422.071
  O     -854.256    -804.782    2423.738
  H     -856.323    -800.106    2428.552
  H     -855.397    -806.267    2421.911
  H     -858.082    -804.687    2433.002
  H     -856.143    -805.288    2426.893
  H     -858.672    -802.594    2427.495
  H     -855.624    -801.975    2427.415
  H     -859.383    -802.720    2433.171
  H     -856.233    -800.195    2425.844
  H     -859.601    -801.738    2431.785
  H     -858.143    -801.820    2424.482
  H     -855.804    -801.406    2423.642
  H     -855.172    -802.637    2424.791
  P     -858.575    -798.996    2425.320
  C     -860.484    -800.004    2423.805
  O     -859.109    -799.604    2423.931
  O     -857.134    -798.445    2424.924
  O     -859.455    -797.938    2425.924
  H     -857.167    -797.472    2424.715
  H     -860.657    -800.382    2422.819
  H     -861.118    -799.160    2423.980
  H     -860.701    -800.768    2424.523

 6  7  8  9  10  11  12  13  14  15  26  29  33  34 0
 6-311+G(2d,p)
 ****
 36  38  39  40  41 0
 6-311+G(2d,p)
 ****
 1  2  3  4  5  16  17  18  19  20  21  22  23  24  25 0
 3-21G
 ****
 27  28  30  31  32  35  37  42  43  44  45  46  47 0
 3-21G
 ****
 48  49 0
 3-21G
 ****


