%nproc=1
%NoSave
%Mem=1900MB
#P OB98/GEN NMR

erre ene a

0 1
  C      606.520    1115.688     606.429
  O      606.310    1115.490     605.042
  H      606.766    1114.724     606.883
  H      605.620    1116.085     606.900
  H      607.363    1116.375     606.582
  P      605.900    1116.774     604.183
  C      607.051    1115.999     601.997
  O      605.822    1116.244     602.671
  C      606.790    1115.594     600.547
  O      605.896    1116.534     599.902
  C      608.051    1115.517     599.677
  O      608.699    1114.279     599.845
  C      607.441    1115.638     598.282
  O      606.944    1114.362     597.867
  C      606.257    1116.614     598.509
  N      604.485    1120.814     596.132
  C      604.055    1119.542     596.138
  N      604.599    1118.453     596.740
  C      605.719    1118.804     597.414
  C      606.280    1120.079     597.502
  C      605.610    1121.124     596.817
  N      606.050    1122.423     596.821
  N      607.422    1120.059     598.271
  C      607.513    1118.810     598.694
  N      606.526    1118.008     598.181
  O      606.735    1117.999     604.407
  O      604.345    1116.929     604.570
  H      606.253    1114.088     598.509
  H      603.926    1116.045     604.605
  H      603.136    1119.358     595.566
  H      608.268    1118.438     599.395
  H      605.381    1116.320     597.925
  H      608.154    1115.976     597.530
  H      608.711    1116.385     599.853
  H      606.277    1114.612     600.560
  H      607.617    1115.197     602.521
  H      605.643    1123.051     596.146
  H      606.977    1122.621     597.229
  H      607.643    1116.920     602.034
  P      610.308    1114.170     599.728
  C      610.223    1112.085     601.249
  O      610.645    1112.614     599.978
  O      611.069    1115.140     600.591
  O      610.593    1114.341     598.155
  H      611.536    1114.573     598.018
  H      610.493    1111.052     601.313
  H      609.161    1112.182     601.341
  H      610.701    1112.628     602.038

 6  7  8  9  10  11  12  13  14  15  25  28  32  33  34  35 0
 6-311+G(2d,p)
 ****
 36  39  40 0
 6-311+G(2d,p)
 ****
 1  2  3  4  5  16  17  18  19  20  21  22  23  24 0
 3-21G
 ****
 26  27  29  30  31  37  38  41  42  43  44  45  46  47 0
 3-21G
 ****
 48 0
 3-21G
 ****


