%nproc=1
%NoSave
%Mem=1900MB
#P OB98/GEN NMR

erre ene a

0 1
  C      496.105     280.093      25.799
  O      495.177     279.040      25.526
  P      495.333     278.261      24.129
  C      493.062     277.001      24.364
  O      493.873     277.886      23.590
  C      491.881     276.500      23.524
  O      490.880     277.518      23.372
  C      492.279     276.115      22.105
  O      492.905     274.849      22.095
  C      490.935     276.147      21.390
  O      490.271     274.872      21.435
  C      490.135     277.208      22.180
  N      489.867     278.408      21.402
  C      488.554     278.553      20.933
  O      487.714     277.681      21.162
  N      488.243     279.663      20.188
  C      489.169     280.541      19.914
  N      488.799     281.618      19.172
  C      490.568     280.410      20.371
  C      490.844     279.329      21.098
  O      495.942     276.850      24.565
  O      496.209     278.966      23.141
  H      489.315     275.072      21.391
  H      496.535     276.510      23.873
  H      491.299     281.160      20.116
  H      491.845     279.156      21.478
  H      489.174     276.796      22.511
  H      491.057     276.404      20.330
  H      492.943     276.878      21.687
  H      491.431     275.635      24.041
  H      487.824     281.673      18.877
  H      492.697     277.518      25.254
  H      489.431     282.348      18.900
  H      493.680     276.169      24.715
  P      494.328     274.732      21.378
  C      495.645     274.186      23.514
  O      495.165     273.690      22.276
  O      495.017     276.120      21.760
  O      494.338     274.483      19.901
  H      495.867     276.221      21.302
  H      496.003     273.337      24.112
  H      494.846     274.685      24.069
  H      496.478     274.874      23.346
  H      495.887     280.522      26.755
  H      496.022     280.846      25.043
  H      497.100     279.699      25.803

 3  4  5  6  7  8  9  10  11  12  13  21  23  27  28  29  30  32 0
 6-311+G(2d,p)
 ****
 34  35 0
 6-311+G(2d,p)
 ****
 1  2  14  15  16  17  18  19  20  22  24  25  26 0
 3-21G
 ****
 31  33  36  37  38  39  40  41  42  43  44  45  46 0
 3-21G
 ****


