%nproc=1
%NoSave
%Mem=1900MB
#P OB98/GEN NMR

erre ene a

0 1
  C     -383.928     726.182    -217.962
  O     -384.296     724.827    -217.979
  H     -382.928     726.280    -217.520
  H     -384.634     726.752    -217.346
  H     -383.913     726.601    -218.978
  P     -385.526     724.406    -218.918
  C     -384.073     722.926    -220.486
  O     -384.910     724.076    -220.363
  C     -383.303     722.960    -221.806
  O     -382.603     724.246    -221.890
  C     -382.253     721.838    -221.965
  O     -382.217     721.436    -223.329
  C     -380.952     722.571    -221.645
  O     -379.825     721.895    -222.223
  C     -381.241     723.943    -222.241
  N     -376.458     725.491    -222.537
  C     -377.162     724.586    -223.316
  N     -376.475     723.934    -224.274
  N     -378.428     724.329    -223.138
  C     -378.996     725.046    -222.145
  C     -378.425     725.960    -221.306
  C     -377.007     726.240    -221.489
  O     -376.329     726.999    -220.825
  N     -379.328     726.440    -220.394
  C     -380.454     725.797    -220.666
  N     -380.310     724.931    -221.732
  O     -386.290     725.801    -219.140
  O     -386.442     723.364    -218.359
  H     -379.014     722.373    -221.943
  H     -387.018     725.891    -218.490
  H     -375.472     725.639    -222.689
  H     -381.393     725.888    -220.124
  H     -381.144     723.955    -223.333
  H     -380.811     722.621    -220.558
  H     -375.500     724.110    -224.485
  H     -382.447     720.976    -221.316
  H     -376.984     723.303    -224.883
  H     -384.019     722.943    -222.631
  H     -384.704     722.024    -220.465
  H     -383.382     722.890    -219.639
  P     -383.134     720.171    -223.767
  C     -384.654     721.593    -225.358
  O     -384.575     720.741    -224.221
  O     -383.436     719.446    -222.376
  O     -382.477     719.247    -224.738
  H     -383.503     718.496    -222.506
  H     -385.672     721.878    -225.520
  H     -384.288     721.074    -226.219
  H     -384.061     722.468    -225.190

 6  7  8  9  10  11  12  13  14  15  26  29  33  34 0
 6-311+G(2d,p)
 ****
 36  38  39  40  41 0
 6-311+G(2d,p)
 ****
 1  2  3  4  5  16  17  18  19  20  21  22  23  24  25 0
 3-21G
 ****
 27  28  30  31  32  35  37  42  43  44  45  46  47 0
 3-21G
 ****
 48  49 0
 3-21G
 ****


