%nproc=1
%NoSave
%Mem=1900MB
#P OB98/GEN NMR

erre ene a

0 1
  C      207.223       8.725     -64.926
  O      207.552      10.000     -65.487
  P      207.045      10.278     -66.989
  C      204.518      10.882     -66.836
  O      205.857      11.353     -66.901
  C      203.690      11.448     -67.988
  O      202.426      10.770     -68.098
  C      203.338      12.921     -67.837
  O      204.420      13.761     -68.209
  C      202.189      13.052     -68.829
  O      202.709      13.228     -70.159
  C      201.485      11.692     -68.702
  N      196.433      12.092     -68.695
  C      197.320      12.087     -69.754
  N      196.779      12.174     -70.989
  N      198.615      12.004     -69.617
  C      199.012      11.891     -68.326
  C      198.234      11.885     -67.193
  C      196.801      12.010     -67.358
  O      195.975      12.052     -66.452
  N      198.994      11.746     -66.061
  C      200.229      11.639     -66.509
  N      200.293      11.736     -67.878
  O      206.286       8.920     -67.367
  O      208.141      10.594     -67.949
  H      201.942      13.253     -70.765
  H      206.303       8.786     -68.333
  H      195.445      12.165     -68.858
  H      201.104      11.487     -65.890
  H      201.211      11.282     -69.681
  H      201.548      13.914     -68.623
  H      195.787      12.169     -71.171
  H      202.979      13.137     -66.823
  H      197.411      12.137     -71.780
  H      204.251      11.292     -68.919
  H      204.067      11.175     -65.886
  H      204.526       9.787     -66.861
  P      204.772      14.980     -67.226
  C      206.213      13.771     -65.440
  O      206.188      14.612     -66.576
  O      203.731      14.790     -66.026
  O      204.665      16.329     -67.852
  H      203.527      15.652     -65.616
  H      205.522      12.932     -65.553
  H      205.949      14.348     -64.550
  H      207.226      13.376     -65.317
  H      207.612       8.662     -63.931
  H      207.651       7.950     -65.527
  H      206.159       8.610     -64.901

 3  4  5  6  7  8  9  10  11  12  23  26  30  31  33  0
 6-311+G(2d,p)
 ****
 35  36  37  38 0
 6-311+G(2d,p)
 ****
 1  2  13  14  15  16  17  18  19  20  21  22  24  25  27  28  29 0
 3-21G
 ****
 32  34  39  40  41  42  43  44  45  46  47  48  49 0
 3-21G
 ****


