%nproc=1
%NoSave
%Mem=1900MB
#P OB98/GEN NMR

erre ene a

0 1
  C      946.879    -364.382    -136.457
  O      945.942    -363.671    -137.235
  H      946.370    -364.760    -135.563
  H      947.689    -363.721    -136.136
  H      947.284    -365.228    -137.014
  P      946.423    -362.965    -138.593
  C      944.447    -363.046    -140.231
  O      945.618    -363.713    -139.770
  C      943.194    -363.605    -139.557
  O      943.254    -363.349    -138.129
  C      941.885    -362.995    -140.081
  O      940.942    -364.033    -140.346
  C      941.397    -362.144    -138.916
  O      939.990    -361.930    -138.937
  C      941.929    -362.951    -137.727
  N      941.930    -362.174    -136.496
  C      940.749    -362.204    -135.748
  O      939.786    -362.871    -136.133
  N      940.669    -361.445    -134.612
  C      941.657    -360.679    -134.277
  N      941.503    -359.933    -133.153
  C      942.914    -360.593    -135.053
  C      942.983    -361.364    -136.137
  O      947.904    -362.912    -138.778
  O      945.745    -361.516    -138.568
  H      939.777    -361.332    -139.689
  H      946.252    -360.915    -139.157
  H      943.708    -359.937    -134.733
  H      943.865    -361.369    -136.772
  H      941.335    -363.861    -137.567
  H      941.887    -361.167    -138.952
  H      942.020    -362.398    -140.982
  H      943.196    -364.698    -139.672
  H      940.625    -360.014    -132.653
  H      944.383    -363.162    -141.316
  H      942.195    -359.281    -132.809
  H      944.539    -361.981    -139.986
  P      940.971    -364.662    -141.823
  C      940.754    -367.186    -141.257
  O      941.589    -366.141    -141.718
  O      942.111    -363.814    -142.559
  O      939.664    -364.568    -142.536
  H      941.702    -363.230    -143.229
  H      941.305    -368.103    -141.243
  H      939.913    -367.285    -141.911
  H      940.413    -366.960    -140.268

 6  7  8  9  10  11  12  13  14  15  16  26  30  31  32  33  35 0
 6-311+G(2d,p)
 ****
 37  38 0
 6-311+G(2d,p)
 ****
 1  2  3  4  5  17  18  19  20  21  22  23  24  25 0
 3-21G
 ****
 27  28  29  34  36  39  40  41  42  43  44  45  46 0
 3-21G
 ****


