%nproc=1
%NoSave
%Mem=1900MB
#P OB98/GEN NMR

erre ene a

0 1
  C      -36.460    -122.858    -108.326
  O      -36.653    -124.233    -108.614
  P      -36.132    -124.784    -110.030
  C      -33.950    -125.999    -109.285
  O      -34.533    -124.876    -109.927
  C      -32.965    -126.701    -110.222
  O      -31.912    -125.765    -110.570
  C      -32.291    -127.944    -109.630
  O      -32.059    -128.849    -110.715
  C      -30.965    -127.405    -109.125
  O      -29.980    -128.422    -108.974
  C      -30.653    -126.368    -110.198
  N      -26.085    -125.519    -108.201
  C      -26.727    -126.715    -108.465
  N      -26.024    -127.840    -108.215
  N      -27.945    -126.800    -108.934
  C      -28.516    -125.591    -109.150
  C      -28.000    -124.344    -108.892
  C      -26.640    -124.263    -108.411
  O      -26.002    -123.227    -108.245
  N      -28.911    -123.357    -109.158
  C      -29.948    -124.004    -109.653
  N      -29.738    -125.355    -109.710
  O      -36.378    -123.544    -111.007
  O      -36.786    -126.039    -110.517
  H      -29.101    -127.994    -109.001
  H      -37.240    -123.617    -111.459
  H      -25.140    -125.517    -107.859
  H      -30.867    -123.551    -109.987
  H      -30.208    -126.814    -111.096
  H      -31.109    -126.930    -108.147
  H      -25.072    -127.849    -107.883
  H      -32.877    -128.429    -108.847
  H      -26.459    -128.729    -108.430
  H      -33.493    -126.956    -111.148
  H      -34.743    -126.705    -109.020
  H      -33.452    -125.678    -108.365
  P      -31.903    -130.407    -110.372
  C      -34.440    -130.680    -110.817
  O      -33.348    -130.959    -109.963
  O      -31.111    -130.386    -108.978
  O      -31.159    -131.204    -111.393
  H      -30.538    -131.172    -108.915
  H      -35.223    -131.421    -110.640
  H      -34.149    -130.720    -111.870
  H      -34.835    -129.687    -110.588
  H      -36.854    -122.638    -107.356
  H      -36.966    -122.266    -109.059
  H      -35.414    -122.633    -108.345

 3  4  5  6  7  8  9  10  11  12  23  26  30  31 0
 6-311+G(2d,p)
 ****
 33  35  36  37  38 0
 6-311+G(2d,p)
 ****
 1  2  13  14  15  16  17  18  19  20  21  22  24  25 0
 3-21G
 ****
 27  28  29  32  34  39  40  41  42  43  44  45  46  47  48  49 0
 3-21G
 ****


