%nproc=1
%NoSave
%Mem=1900MB
#P OB98/GEN NMR

erre ene a

0 1
  C     -178.529     216.775     -77.527
  O     -179.159     215.602     -77.060
  H     -178.778     216.907     -78.584
  H     -177.444     216.686     -77.434
  H     -178.878     217.652     -76.976
  P     -179.094     215.264     -75.495
  C     -181.547     215.542     -74.757
  O     -180.248     216.120     -74.784
  C     -182.166     215.722     -73.373
  O     -181.207     215.363     -72.354
  C     -182.572     217.156     -73.062
  O     -183.762     217.518     -73.734
  C     -182.677     217.100     -71.548
  O     -183.937     216.559     -71.136
  C     -181.524     216.142     -71.178
  N     -180.348     216.860     -70.688
  C     -180.457     217.423     -69.422
  O     -181.462     217.333     -68.721
  N     -179.379     218.157     -69.003
  C     -178.297     218.486     -69.767
  O     -177.480     219.342     -69.442
  C     -178.208     217.814     -71.070
  C     -179.227     217.052     -71.471
  O     -177.745     215.370     -74.866
  O     -179.660     213.767     -75.411
  H     -178.913     213.147     -75.307
  H     -183.934     216.590     -70.156
  H     -179.467     218.604     -68.100
  H     -177.329     217.993     -71.676
  H     -179.201     216.572     -72.445
  H     -181.847     215.433     -70.406
  H     -182.579     218.091     -71.102
  H     -181.760     217.839     -73.336
  H     -183.025     215.045     -73.288
  H     -181.463     214.474     -74.983
  H     -182.166     216.020     -75.524
  P     -184.056     219.052     -74.087
  C     -182.767     218.966     -76.308
  O     -182.876     219.586     -75.031
  O     -184.367     219.926     -72.919
  O     -185.305     218.985     -75.089
  H     -185.991     219.607     -74.779
  H     -181.951     219.400     -76.847
  H     -183.674     219.115     -76.855
  H     -182.594     217.918     -76.182

 6  7  8  9  10  11  12  13  14  15  16  27  31  32  33  34  35 0
 6-311+G(2d,p)
 ****
 36  37 0
 6-311+G(2d,p)
 ****
 1  2  3  4  5  17  18  19  20  21  22  23  24  25 0
 3-21G
 ****
 26  28  29  30  38  39  40  41  42  43  44  45 0
 3-21G
 ****


