%nproc=1
%NoSave
%Mem=1900MB
#P OB98/GEN NMR

erre ene a

0 1
  C     -290.963      65.229     116.523
  O     -289.951      64.860     115.604
  P     -288.928      65.987     115.098
  C     -286.998      65.554     116.829
  O     -288.039      66.398     116.371
  C     -285.715      66.362     117.045
  O     -284.673      65.473     117.529
  C     -285.179      67.051     115.782
  O     -284.599      68.297     116.192
  C     -284.102      66.093     115.308
  O     -283.147      66.717     114.464
  C     -283.541      65.607     116.647
  N     -282.813      64.342     116.550
  C     -281.834      64.078     117.502
  O     -281.531      64.855     118.407
  N     -281.178      62.882     117.366
  C     -281.352      61.978     116.359
  O     -280.724      60.931     116.277
  C     -282.366      62.333     115.355
  C     -283.043      63.471     115.500
  O     -289.911      67.229     114.895
  O     -288.149      65.594     113.891
  H     -290.626      67.260     115.552
  H     -282.734      67.446     114.963
  H     -280.490      62.653     118.069
  H     -282.523      61.647     114.531
  H     -283.794      63.755     114.772
  H     -282.886      66.374     117.081
  H     -284.566      65.273     114.746
  H     -285.961      67.230     115.040
  H     -285.901      67.101     117.834
  H     -286.809      64.776     116.089
  H     -287.311      65.066     117.758
  P     -284.169      69.346     115.049
  C     -286.307      70.792     115.484
  O     -285.496      70.096     114.562
  O     -283.867      68.336     113.839
  O     -282.996      70.204     115.391
  H     -284.574      67.682     113.706
  H     -286.942      71.490     114.935
  H     -285.705      71.355     116.200
  H     -286.946      70.081     116.018
  H     -291.558      64.372     116.761
  H     -291.583      65.984     116.087
  H     -290.512      65.609     117.416

 3  4  5  6  7  8  9  10  11  12  13  24  28  29  30  31  32 0
 6-311+G(2d,p)
 ****
 33  34 0
 6-311+G(2d,p)
 ****
 1  2  14  15  16  17  18  19  20  21  22  23  25  26  27 0
 3-21G
 ****
 35  36  37  38  39  40  41  42  43  44  45 0
 3-21G
 ****


