%nproc=1
%NoSave
%Mem=1900MB
#P OB98/GEN NMR

erre ene a

0 1
  C     -244.480     802.951     455.757
  O     -243.283     803.695     455.960
  P     -243.114     804.522     457.324
  C     -241.426     802.832     458.470
  O     -241.727     804.134     458.024
  C     -240.720     802.920     459.836
  O     -240.651     801.605     460.449
  C     -239.294     803.443     459.746
  O     -239.248     804.869     459.788
  C     -238.640     802.784     460.952
  O     -239.002     803.474     462.153
  C     -239.293     801.388     460.913
  N     -238.668     800.344     460.053
  C     -237.474     799.738     460.465
  O     -236.882     800.017     461.501
  N     -236.979     798.782     459.625
  C     -237.601     798.245     458.534
  O     -237.133     797.346     457.852
  C     -238.925     798.815     458.235
  C     -239.382     799.825     458.991
  O     -244.218     803.884     458.294
  O     -243.281     805.997     457.181
  H     -239.966     803.405     462.251
  H     -244.894     804.547     458.514
  H     -236.071     798.387     459.860
  H     -239.479     798.389     457.403
  H     -240.358     800.255     458.769
  H     -239.356     800.962     461.923
  H     -237.557     802.833     460.882
  H     -238.803     803.068     458.846
  H     -241.320     803.564     460.496
  H     -240.790     802.309     457.756
  H     -242.349     802.245     458.563
  P     -238.351     805.663     458.732
  C     -239.751     805.445     456.594
  O     -239.378     806.283     457.664
  O     -237.186     804.906     458.155
  O     -237.877     806.957     459.558
  H     -236.982     806.818     459.948
  H     -240.566     805.902     456.039
  H     -240.093     804.469     456.979
  H     -238.899     805.289     455.922
  H     -244.438     802.460     454.807
  H     -245.320     803.614     455.779
  H     -244.582     802.220     456.532

 3  4  5  6  7  8  9  10  11  12  13  23  28  29  30  31  32 0
 6-311+G(2d,p)
 ****
 33  34 0
 6-311+G(2d,p)
 ****
 1  2  14  15  16  17  18  19  20  21  22  24  25  26  27 0
 3-21G
 ****
 35  36  37  38  39  40  41  42  43  44  45 0
 3-21G
 ****


