%nproc=1
%NoSave
%Mem=1900MB
#P OB98/GEN NMR

erre ene a

0 1
  C     -213.463      53.113     -18.469
  O     -213.575      52.307     -17.309
  H     -214.043      52.649     -19.271
  H     -212.422      53.195     -18.789
  H     -213.873      54.107     -18.271
  P     -212.595      52.619     -16.076
  C     -210.891      51.120     -17.306
  O     -211.109      52.357     -16.634
  C     -209.464      50.622     -17.105
  O     -208.519      51.480     -17.785
  C     -209.004      50.612     -15.655
  O     -209.671      49.684     -14.830
  C     -207.494      50.523     -15.803
  O     -207.043      49.185     -16.014
  C     -207.261      51.365     -17.081
  N     -206.688      52.677     -16.786
  C     -205.521      52.675     -16.036
  O     -204.986      51.653     -15.605
  N     -204.994      53.913     -15.754
  C     -205.537      55.115     -16.107
  O     -205.024      56.186     -15.808
  C     -206.796      55.050     -16.871
  C     -207.307      53.856     -17.173
  O     -212.902      51.888     -14.802
  O     -212.651      54.212     -15.933
  H     -206.154      49.242     -16.404
  H     -212.287      54.507     -15.059
  H     -204.135      53.930     -15.222
  H     -207.256      55.984     -17.155
  H     -208.232      53.779     -17.740
  H     -206.572      50.847     -17.763
  H     -206.965      50.906     -14.924
  H     -209.212      51.601     -15.222
  H     -209.382      49.622     -17.553
  H     -211.069      51.283     -18.377
  H     -211.607      50.375     -16.937
  P     -210.021      49.949     -13.296
  C     -207.677      49.024     -12.582
  O     -208.646      50.064     -12.472
  O     -211.123      49.137     -12.706
  O     -210.513      51.487     -13.330
  H     -211.209      51.583     -12.653
  H     -206.830      49.260     -11.973
  H     -207.368      48.931     -13.602
  H     -208.106      48.100     -12.254

 6  7  8  9  10  11  12  13  14  15  16  26  31  32  33  34  35 0
 6-311+G(2d,p)
 ****
 36  37 0
 6-311+G(2d,p)
 ****
 1  2  3  4  5  17  18  19  20  21  22  23  24  25 0
 3-21G
 ****
 27  28  29  30  38  39  40  41  42  43  44  45 0
 3-21G
 ****


