%nproc=1
%NoSave
%Mem=1900MB
#P OB98/GEN NMR

erre ene a

0 1
  C     -558.386    -860.513     410.689
  O     -556.986    -860.722     410.644
  H     -558.580    -859.443     410.807
  H     -558.819    -861.049     411.540
  H     -558.847    -860.856     409.758
  P     -556.496    -862.238     410.459
  C     -555.204    -861.677     408.263
  O     -555.146    -862.161     409.597
  C     -553.971    -860.820     407.953
  O     -554.119    -859.534     408.629
  C     -552.647    -861.429     408.436
  O     -551.604    -860.960     407.566
  C     -552.495    -860.785     409.810
  O     -551.186    -860.949     410.302
  C     -552.957    -859.364     409.471
  N     -551.222    -855.903     412.810
  C     -550.664    -856.449     411.705
  N     -551.191    -857.352     410.864
  C     -552.445    -857.686     411.232
  C     -553.147    -857.206     412.325
  C     -552.487    -856.268     413.138
  N     -553.048    -855.718     414.267
  N     -554.407    -857.778     412.382
  C     -554.457    -858.583     411.342
  N     -553.285    -858.567     410.629
  O     -557.569    -862.846     409.437
  O     -556.397    -863.042     411.712
  H     -550.941    -861.897     410.335
  H     -558.270    -863.305     409.925
  H     -549.652    -856.118     411.482
  H     -555.301    -859.203     411.068
  H     -552.196    -858.822     408.897
  H     -553.167    -861.251     410.539
  H     -552.652    -862.522     408.452
  H     -553.949    -860.608     406.879
  H     -556.114    -861.077     408.149
  H     -555.240    -862.522     407.571
  H     -552.500    -855.068     414.808
  H     -553.980    -855.998     414.534
  P     -550.124    -861.569     407.729
  C     -550.046    -862.912     405.481
  O     -549.517    -861.849     406.269
  O     -550.425    -863.057     408.252
  O     -549.222    -860.848     408.682
  H     -549.672    -863.374     408.797
  H     -549.528    -862.954     404.546
  H     -551.088    -862.741     405.305
  H     -549.919    -863.839     406.001

 6  7  8  9  10  11  12  13  14  15  25  28  32  33  34  35 0
 6-311+G(2d,p)
 ****
 36  37  40 0
 6-311+G(2d,p)
 ****
 1  2  3  4  5  16  17  18  19  20  21  22  23  24 0
 3-21G
 ****
 26  27  29  30  31  38  39 41  42  43  44  45  46  47  48 0
 3-21G
 ****


