%nproc=1
%NoSave
%Mem=1900MB
#P OB98/GEN NMR

erre ene a

0 1
  C     1398.447     -92.195    -320.901
  O     1398.370     -93.612    -320.947
  H     1398.736     -91.864    -319.899
  H     1399.205     -91.862    -321.624
  H     1397.479     -91.763    -321.179
  P     1397.389     -94.309    -319.892
  C     1399.135     -96.194    -319.555
  O     1398.314     -95.213    -318.935
  C     1400.474     -96.292    -318.827
  O     1401.277     -95.119    -319.092
  C     1400.368     -96.382    -317.306
  O     1400.027     -97.690    -316.865
  C     1401.791     -96.001    -316.903
  O     1402.654     -97.160    -317.037
  C     1402.163     -94.950    -317.958
  N     1403.936     -91.456    -314.616
  C     1404.274     -92.748    -314.849
  N     1403.758     -93.609    -315.726
  C     1402.787     -93.036    -316.462
  C     1402.327     -91.719    -316.353
  C     1402.938     -90.916    -315.373
  N     1402.571     -89.618    -315.155
  N     1401.338     -91.464    -317.275
  C     1401.191     -92.606    -317.924
  N     1402.046     -93.580    -317.473
  O     1396.601     -95.384    -320.772
  O     1396.451     -93.379    -319.179
  H     1402.203     -97.901    -316.593
  H     1395.684     -95.454    -320.435
  H     1405.091     -93.126    -314.223
  H     1400.497     -92.767    -318.739
  H     1403.185     -95.091    -318.320
  H     1401.868     -95.662    -315.870
  H     1399.667     -95.629    -316.914
  H     1401.008     -97.164    -319.232
  H     1399.314     -95.925    -320.601
  H     1403.170     -89.029    -314.571
  H     1401.831     -89.209    -315.710
  H     1398.614     -97.157    -319.522
  P     1399.371     -97.829    -315.392
  C     1400.000    -100.329    -315.655
  O     1399.960     -99.210    -314.802
  O     1397.839     -98.185    -315.711
  O     1399.498     -96.610    -314.537
  H     1397.281     -97.916    -314.965
  H     1400.412    -101.164    -315.128
  H     1400.610    -100.107    -316.506
  H     1399.008    -100.566    -315.979

 6  7  8  9  10  11  12  13  14  15  25  28  32  33  34  35 0
 6-311+G(2d,p)
 ****
 36  39  40 0
 6-311+G(2d,p)
 ****
 1  2  3  4  5  16  17  18  19  20  21  22  23  24 0
 3-21G
 ****
 26  27  29  30  31  37  38  41  42  43  44  45  46  47  48 0
 3-21G
 ****


