%nproc=1
%NoSave
%Mem=1900MB
#P OB98/GEN NMR

erre ene a

0 1
  C     -124.266     449.484    -174.508
  O     -123.882     449.853    -173.194
  P     -123.749     451.419    -172.874
  C     -125.415     451.884    -170.928
  O     -125.186     451.884    -172.337
  C     -126.690     451.122    -170.597
  O     -126.521     449.723    -170.893
  C     -127.083     451.186    -169.128
  O     -127.683     452.427    -168.820
  C     -128.032     449.996    -169.020
  O     -129.375     450.373    -169.376
  C     -127.447     449.000    -170.047
  N     -126.799     447.857    -169.420
  C     -127.643     446.791    -169.088
  O     -128.855     446.862    -169.318
  N     -127.099     445.688    -168.472
  C     -125.832     445.661    -168.210
  N     -125.348     444.543    -167.601
  C     -124.915     446.775    -168.519
  C     -125.458     447.834    -169.113
  O     -123.662     452.080    -174.327
  O     -122.584     451.784    -172.010
  H     -129.930     449.601    -169.155
  H     -123.182     452.931    -174.296
  H     -123.863     446.703    -168.270
  H     -124.866     448.697    -169.374
  H     -128.238     448.618    -170.709
  H     -128.077     449.596    -168.004
  H     -126.206     451.013    -168.486
  H     -127.504     451.512    -171.231
  H     -126.006     443.798    -167.392
  H     -125.521     452.916    -170.587
  H     -124.368     444.415    -167.373
  H     -124.551     451.437    -170.429
  P     -126.893     453.417    -167.845
  C     -127.100     455.615    -169.154
  O     -126.262     454.529    -168.815
  O     -125.606     452.545    -167.450
  O     -127.625     453.920    -166.644
  H     -125.086     453.010    -166.767
  H     -126.504     456.368    -169.677
  H     -127.531     456.062    -168.262
  H     -127.901     455.271    -169.820
  H     -124.315     448.417    -174.579
  H     -123.547     449.856    -175.207
  H     -125.226     449.900    -174.729

 3  4  5  6  7  8  9  10  11  12  13  21  23  27  28  29  30  32 0
 6-311+G(2d,p)
 ****
 34  35 0
 6-311+G(2d,p)
 ****
 1  2  14  15  16  17  18  19  20  22  24  25  26 0
 3-21G
 ****
 31  33  36  37  38  39  40  41  42  43  44  45  46 0
 3-21G
 ****


