%nproc=1
%NoSave
%Mem=1900MB
#P OB98/GEN NMR

erre ene a

0 1
  C     -924.126     272.944     143.222
  O     -924.588     273.837     144.239
  P     -925.701     274.930     143.872
  C     -927.653     274.005     145.283
  O     -927.150     274.248     143.983
  C     -929.109     273.529     145.238
  O     -929.965     274.602     144.755
  C     -929.311     272.313     144.318
  O     -930.017     271.242     144.950
  C     -929.974     272.911     143.087
  O     -930.723     271.960     142.342
  C     -930.756     274.097     143.664
  N     -931.019     275.122     142.645
  C     -932.343     275.463     142.429
  O     -933.283     274.896     142.982
  N     -932.566     276.441     141.494
  C     -931.615     277.041     140.726
  O     -931.870     277.882     139.874
  C     -930.231     276.602     140.955
  C     -930.002     275.677     141.896
  O     -925.461     275.709     142.630
  O     -925.685     275.896     145.158
  H     -931.298     272.442     141.704
  H     -925.798     276.813     144.844
  H     -933.527     276.712     141.338
  H     -929.450     277.041     140.348
  H     -928.994     275.323     142.078
  H     -931.726     273.779     144.055
  H     -929.191     273.295     142.428
  H     -928.353     271.868     144.029
  H     -929.411     273.283     146.269
  H     -927.605     274.924     145.874
  H     -927.002     273.286     145.797
  P     -929.453     270.388     146.174
  C     -931.087     271.393     147.911
  O     -929.742     271.190     147.527
  O     -928.050     269.888     146.031
  O     -930.471     269.146     146.248
  H     -929.976     268.331     146.442
  H     -931.128     272.239     148.608
  H     -931.461     270.511     148.422
  H     -931.716     271.622     147.044
  H     -923.390     272.285     143.633
  H     -923.693     273.508     142.422
  H     -924.949     272.371     142.849

 3  4  5  6  7  8  9  10  11  12  13  23  28  29  30  31  32 0
 6-311+G(2d,p)
 ****
 33  34 0
 6-311+G(2d,p)
 ****
 1  2  14  15  16  17  18  19  20  21  22  24  25  26  27 0
 3-21G
 ****
 35  36  37  38  39  40  41  42  43  44  45 0
 3-21G
 ****


