%nproc=1
%NoSave
%Mem=1900MB
#P OB98/GEN NMR

erre ene a

0 1
  C       30.874      22.346     187.042
  O       30.019      22.523     188.157
  H       31.477      21.449     187.204
  H       31.541      23.208     186.946
  H       30.288      22.220     186.126
  P       28.917      23.686     188.041
  C       29.638      24.703     190.354
  O       28.614      24.145     189.550
  C       29.439      24.322     191.823
  O       29.815      22.930     191.998
  C       30.275      25.157     192.796
  O       29.518      25.351     193.992
  C       31.464      24.258     193.098
  O       32.087      24.587     194.334
  C       30.810      22.866     193.040
  N       31.783      21.804     192.792
  C       32.939      21.813     193.581
  O       33.108      22.698     194.422
  N       33.894      20.853     193.368
  C       33.742      19.995     192.411
  N       34.737      19.082     192.235
  C       32.560      19.973     191.525
  C       31.625      20.889     191.776
  O       27.610      22.860     187.627
  O       29.276      24.786     187.101
  H       32.988      24.197     194.344
  H       27.489      22.043     188.139
  H       32.484      19.243     190.731
  H       30.720      20.940     191.182
  H       30.293      22.649     193.984
  H       32.217      24.355     192.305
  H       30.567      26.125     192.382
  H       28.369      24.393     192.061
  H       35.540      19.148     192.852
  H       29.643      25.793     190.262
  H       34.751      18.403     191.487
  H       30.601      24.326     189.992
  P       29.408      26.820     194.626
  C       30.238      25.942     196.914
  O       29.254      26.700     196.218
  O       28.441      27.741     193.962
  O       30.908      27.382     194.469
  H       30.847      28.318     194.200
  H       30.016      25.944     197.961
  H       31.202      26.377     196.753
  H       30.235      24.935     196.551

 6  7  8  9  10  11  12  13  14  15  16  26  30  31  32  33  35 0
 6-311+G(2d,p)
 ****
 37  38 0
 6-311+G(2d,p)
 ****
 1  2  3  4  5  17  18  19  20  21  22  23  24  25 0
 3-21G
 ****
 27  28  29  34  36  39  40  41  42  43  44  45  46 0
 3-21G
 ****


