%nproc=1
%NoSave
%Mem=1900MB
#P OB98/GEN NMR

erre ene a

0 1
  C      235.985    -223.586     344.145
  O      235.228    -224.660     343.591
  P      235.742    -226.162     343.828
  C      234.644    -226.712     346.101
  O      235.857    -226.416     345.412
  C      234.767    -228.049     346.857
  O      235.656    -227.870     347.991
  C      233.454    -228.584     347.441
  O      232.644    -229.427     346.622
  C      233.965    -229.454     348.584
  O      234.346    -230.749     348.080
  C      235.208    -228.713     349.074
  N      235.795    -228.463     354.156
  C      236.157    -229.395     353.246
  N      235.965    -229.386     351.912
  C      235.333    -228.267     351.528
  C      234.906    -227.224     352.340
  C      235.153    -227.351     353.716
  N      234.772    -226.408     354.641
  N      234.287    -226.243     351.590
  C      234.330    -226.696     350.350
  N      234.962    -227.906     350.259
  O      236.927    -226.584     343.023
  O      234.451    -227.034     343.440
  H      234.745    -231.235     348.828
  H      234.747    -227.850     342.987
  H      236.672    -230.266     353.645
  H      233.908    -226.182     349.492
  H      236.031    -229.395     349.318
  H      233.207    -229.629     349.351
  H      232.846    -227.763     347.841
  H      235.211    -228.799     346.187
  H      233.822    -226.768     345.386
  H      234.952    -226.598     355.616
  H      234.245    -225.601     354.341
  H      234.434    -225.876     346.770
  P      231.272    -228.899     345.981
  C      231.974    -229.579     343.554
  O      231.612    -228.553     344.452
  O      230.608    -227.794     346.732
  O      230.404    -230.237     345.863
  H      230.736    -230.875     345.207
  H      231.953    -229.180     342.535
  H      231.277    -230.420     343.618
  H      232.989    -229.926     343.773
  H      235.516    -222.656     343.901
  H      236.976    -223.602     343.741
  H      236.032    -223.694     345.209

 3  4  5  6  7  8  9  10  11  12  22  25  29  30  31  32 0
 6-311+G(2d,p)
 ****
 33  36  37 0
 6-311+G(2d,p)
 ****
 1  2  13  14  15  16  17  18  19  20  21  23  24  26 0
 3-21G
 ****
 27  28  34  35  38  39  40  41  42  43  44  45  46  47  48 0
 3-21G
 ****


