%nproc=1
%NoSave
%Mem=1900MB
#P OB98/GEN NMR

erre ene a

0 1
  C      -29.306     -69.429    -150.293
  O      -29.984     -68.201    -150.475
  H      -28.327     -69.228    -149.849
  H      -29.160     -69.925    -151.257
  H      -29.875     -70.079    -149.621
  P      -31.425     -68.282    -151.177
  C      -30.511     -67.585    -153.501
  O      -31.153     -68.590    -152.730
  C      -30.539     -67.950    -154.983
  O      -29.991     -69.268    -155.196
  C      -31.933     -67.948    -155.605
  O      -32.312     -66.637    -155.991
  C      -31.726     -68.875    -156.795
  O      -31.093     -68.177    -157.892
  C      -30.784     -69.938    -156.214
  N      -31.185     -74.970    -156.419
  C      -30.462     -74.098    -157.213
  N      -29.760     -74.646    -158.230
  N      -30.436     -72.805    -157.034
  C      -31.228     -72.391    -156.016
  C      -31.992     -73.151    -155.162
  C      -31.970     -74.588    -155.337
  O      -32.523     -75.417    -154.619
  N      -32.644     -72.365    -154.244
  C      -32.297     -71.132    -154.566
  N      -31.445     -71.095    -155.638
  O      -31.922     -66.757    -151.187
  O      -32.419     -69.168    -150.504
  H      -31.708     -67.512    -158.243
  H      -32.882     -66.741    -151.017
  H      -31.143     -75.960    -156.585
  H      -32.630     -70.239    -154.051
  H      -30.087     -70.322    -156.968
  H      -32.675     -69.253    -157.179
  H      -29.968     -75.567    -158.590
  H      -32.668     -68.391    -154.924
  H      -29.291     -74.000    -158.853
  H      -29.882     -67.241    -155.508
  H      -29.471     -67.495    -153.171
  H      -31.021     -66.630    -153.345
  P      -33.864     -66.242    -155.902
  C      -34.129     -66.432    -158.479
  O      -34.603     -66.835    -157.200
  O      -33.846     -64.662    -156.166
  O      -34.514     -66.558    -154.596
  H      -33.997     -64.184    -155.327
  H      -34.714     -66.904    -159.241
  H      -33.104     -66.720    -158.586
  H      -34.213     -65.369    -158.572

 6  7  8  9  10  11  12  13  14  15  26  29  33  34 0
 6-311+G(2d,p)
 ****
 36  38  39  40  41 0
 6-311+G(2d,p)
 ****
 1  2  3  4  5  16  17  18  19  20  21  22  23  24  25 0
 3-21G
 ****
 27  28  30  31  32  35  37  42  43  44  45  46  47 0
 3-21G
 ****
 48  49 0
 3-21G
 ****


