%nproc=1
%NoSave
%Mem=1900MB
#P OB98/GEN NMR

erre ene a

0 1
  C     -716.704     378.018    -323.296
  O     -716.598     377.987    -321.866
  P     -715.497     377.094    -321.114
  C     -714.110     379.148    -320.424
  O     -714.109     377.899    -321.099
  C     -712.838     379.957    -320.724
  O     -712.811     380.365    -322.112
  C     -712.696     381.242    -319.906
  O     -712.223     380.943    -318.604
  C     -711.720     382.037    -320.774
  O     -710.367     381.606    -320.547
  C     -712.171     381.656    -322.194
  N     -712.526     386.407    -324.045
  C     -711.488     385.709    -323.547
  N     -711.473     384.446    -323.069
  C     -712.693     383.890    -323.161
  C     -713.851     384.486    -323.637
  C     -713.744     385.811    -324.090
  N     -714.809     386.527    -324.579
  N     -714.920     383.613    -323.550
  C     -714.409     382.507    -323.041
  N     -713.067     382.631    -322.792
  O     -715.392     375.692    -321.621
  O     -715.942     377.113    -319.580
  H     -710.115     381.895    -319.655
  H     -715.637     376.295    -319.134
  H     -710.532     386.232    -323.538
  H     -714.969     381.603    -322.848
  H     -711.317     381.537    -322.868
  H     -711.763     383.112    -320.576
  H     -713.654     381.766    -319.864
  H     -711.973     379.304    -320.569
  H     -714.167     378.956    -319.342
  H     -714.655     387.482    -324.859
  H     -715.729     386.106    -324.576
  H     -714.990     379.716    -320.727
  P     -713.243     380.396    -317.487
  C     -712.040     378.132    -317.419
  O     -713.272     378.799    -317.626
  O     -714.582     381.052    -317.467
  O     -712.461     380.625    -316.115
  H     -713.105     380.776    -315.400
  H     -711.432     378.199    -318.307
  H     -712.248     377.084    -317.193
  H     -711.500     378.571    -316.569
  H     -717.500     378.674    -323.581
  H     -716.907     377.032    -323.660
  H     -715.784     378.371    -323.714

 3  4  5  6  7  8  9  10  11  12  22  25  29  30  31  32 0
 6-311+G(2d,p)
 ****
 33  36  37 0
 6-311+G(2d,p)
 ****
 1  2  13  14  15  16  17  18  19  20  21  23  24  26 0
 3-21G
 ****
 27  28  34  35  38  39  40  41  42  43  44  45  46  47  48 0
 3-21G
 ****


