%nproc=1
%NoSave
%Mem=1900MB
#P OB98/GEN NMR

erre ene a

0 1
  C      -27.481     -21.205      61.464
  O      -27.615     -22.504      60.913
  P      -26.687     -22.906      59.671
  C      -28.268     -21.554      58.111
  O      -26.933     -21.827      58.510
  C      -28.292     -20.452      57.050
  O      -27.542     -19.297      57.536
  C      -27.673     -20.864      55.705
  O      -28.396     -20.184      54.669
  C      -26.269     -20.296      55.803
  O      -25.637     -20.149      54.541
  C      -26.562     -18.978      56.528
  N      -25.366     -18.371      57.110
  C      -24.746     -17.358      56.387
  O      -25.143     -16.949      55.297
  N      -23.595     -16.855      56.932
  C      -22.968     -17.314      58.053
  O      -21.877     -16.899      58.424
  C      -23.669     -18.387      58.777
  C      -24.817     -18.858      58.282
  O      -27.382     -24.234      59.110
  O      -25.252     -23.128      60.012
  H      -26.306     -19.818      53.915
  H      -26.903     -25.025      59.418
  H      -23.139     -16.111      56.427
  H      -23.210     -18.762      59.683
  H      -25.344     -19.663      58.783
  H      -27.033     -18.265      55.839
  H      -25.649     -20.960      56.415
  H      -27.682     -21.944      55.532
  H      -29.330     -20.127      56.907
  H      -28.842     -21.228      58.979
  H      -28.731     -22.470      57.726
  P      -28.928     -21.055      53.428
  C      -27.272     -19.826      51.821
  O      -27.763     -21.048      52.330
  O      -30.035     -20.066      52.823
  O      -29.469     -22.391      53.819
  H      -29.734     -19.144      52.790
  H      -27.279     -19.042      52.582
  H      -27.887     -19.513      50.974
  H      -26.246     -19.972      51.475
  H      -28.164     -21.091      62.280
  H      -27.698     -20.475      60.713
  H      -26.480     -21.068      61.815

 3  4  5  6  7  8  9  10  11  12  13  23  28  29  30  31  32 0
 6-311+G(2d,p)
 ****
 33  34 0
 6-311+G(2d,p)
 ****
 1  2  14  15  16  17  18  19  20  21  22  24  25  26 0
 3-21G
 ****
 27  35  36  37  38  39  40  41  42  43  44  45 0
 3-21G
 ****


