%nproc=1
%NoSave
%Mem=1900MB
#P OB98/GEN NMR

erre ene a

0 1
  C     -374.370      71.440     219.993
  O     -375.715      71.697     219.625
  P     -376.825      70.593     219.966
  C     -377.206      70.220     217.419
  O     -377.790      70.467     218.688
  C     -378.281      70.211     216.329
  O     -379.166      69.066     216.533
  C     -379.163      71.468     216.309
  O     -379.517      71.730     214.941
  C     -380.393      71.021     217.076
  O     -381.532      71.832     216.832
  C     -380.514      69.576     216.576
  N     -381.378      68.751     217.417
  C     -382.746      68.998     217.366
  O     -383.265      69.865     216.660
  N     -383.517      68.249     218.213
  C     -383.061      67.365     219.146
  O     -383.800      66.810     219.955
  C     -381.609      67.144     219.156
  C     -380.845      67.833     218.305
  O     -377.737      71.316     221.061
  O     -376.280      69.295     220.459
  H     -382.294      71.397     217.250
  H     -377.501      71.011     221.959
  H     -384.514      68.406     218.180
  H     -381.216      66.432     219.873
  H     -379.769      67.707     218.305
  H     -380.892      69.567     215.543
  H     -380.183      71.054     218.151
  H     -378.682      72.349     216.751
  H     -377.794      70.073     215.353
  H     -376.704      69.252     217.436
  H     -376.449      70.986     217.205
  P     -378.509      72.618     214.061
  C     -380.509      74.250     213.617
  O     -379.419      73.521     213.093
  O     -377.905      71.499     213.083
  O     -377.477      73.333     214.865
  H     -378.582      70.890     212.743
  H     -380.305      74.608     214.630
  H     -381.398      73.609     213.634
  H     -380.703      75.108     212.972
  H     -373.756      72.265     219.699
  H     -374.030      70.551     219.504
  H     -374.309      71.310     221.053

 3  4  5  6  7  8  9  10  11  12  13  23  28  29  30  31  32 0
 6-311+G(2d,p)
 ****
 33  34 0
 6-311+G(2d,p)
 ****
 1  2  14  15  16  17  18  19  20  21  22  24  25  26 0
 3-21G
 ****
 27  35  36  37  38  39  40  41  42  43  44  45 0
 3-21G
 ****


