%nproc=1
%NoSave
%Mem=1900MB
#P OB98/GEN NMR

erre ene a

0 1
  C     -764.420     876.349      84.511
  O     -763.060     876.699      84.339
  H     -764.789     876.813      85.426
  H     -764.529     875.264      84.594
  H     -765.008     876.722      83.667
  P     -762.315     876.085      83.058
  C     -761.962     873.551      83.500
  O     -762.829     874.558      82.993
  C     -761.964     872.330      82.581
  O     -763.318     871.952      82.259
  C     -761.260     872.541      81.251
  O     -759.858     872.349      81.398
  C     -761.886     871.439      80.411
  O     -761.235     870.189      80.700
  C     -763.333     871.409      80.923
  N     -765.352     872.065      76.250
  C     -764.282     871.353      76.668
  N     -763.769     871.273      77.908
  C     -764.491     872.004      78.783
  C     -765.602     872.785      78.495
  C     -766.042     872.797      77.158
  N     -767.132     873.515      76.731
  N     -766.076     873.407      79.627
  C     -765.300     872.963      80.595
  N     -764.298     872.146      80.129
  O     -760.840     876.288      83.009
  O     -763.141     876.772      81.871
  H     -761.653     869.512      80.131
  H     -764.090     876.794      82.079
  H     -763.766     870.783      75.903
  H     -765.423     873.192      81.644
  H     -763.717     870.379      80.997
  H     -761.780     871.614      79.338
  H     -761.497     873.515      80.804
  H     -761.517     871.498      83.140
  H     -762.273     873.263      84.510
  H     -767.251     873.616      75.732
  H     -767.558     874.160      77.381
  H     -760.955     873.980      83.559
  P     -758.839     872.755      80.224
  C     -759.015     870.343      79.361
  O     -759.147     871.721      79.034
  O     -757.411     872.848      80.654
  O     -759.417     874.133      79.663
  H     -758.723     874.594      79.131
  H     -759.242     869.749      78.501
  H     -759.692     870.098      80.152
  H     -758.012     870.146      79.676

 6  7  8  9  10  11  12  13  14  15  25  28  32  33  34  35 0
 6-311+G(2d,p)
 ****
 36  39  40 0
 6-311+G(2d,p)
 ****
 1  2  3  4  5  16  17  18  19  20  21  22  23  24 0
 3-21G
 ****
 26  27  29  30  31  37  38  41  42  43  44  45  46  47 0
 3-21G
 ****
 48 0
 3-21G
 ****


