%nproc=1
%NoSave
%Mem=1900MB
#P OB98/GEN NMR

erre ene a

0 1
  C     -339.918    -533.034    -339.305
  O     -340.056    -533.412    -337.952
  H     -339.106    -533.615    -339.751
  H     -339.665    -531.969    -339.375
  H     -340.844    -533.234    -339.856
  P     -341.307    -532.805    -337.152
  C     -342.048    -534.936    -335.807
  O     -341.456    -533.642    -335.791
  C     -341.915    -535.589    -334.434
  O     -340.517    -535.766    -334.071
  C     -342.478    -534.757    -333.296
  O     -343.891    -534.712    -333.304
  C     -341.889    -535.498    -332.093
  O     -342.632    -536.686    -331.800
  C     -340.475    -535.843    -332.618
  N     -339.448    -534.969    -332.064
  C     -338.856    -535.406    -330.870
  O     -339.198    -536.462    -330.359
  N     -337.910    -534.599    -330.280
  C     -337.564    -533.491    -330.834
  N     -336.629    -532.737    -330.198
  C     -338.140    -533.006    -332.112
  C     -339.073    -533.787    -332.655
  O     -342.557    -533.307    -338.015
  O     -341.261    -531.324    -336.932
  H     -342.136    -537.159    -331.106
  H     -342.561    -534.274    -338.163
  H     -337.812    -532.064    -332.543
  H     -339.548    -533.506    -333.590
  H     -340.218    -536.878    -332.366
  H     -341.907    -534.878    -331.192
  H     -342.055    -533.744    -333.314
  H     -342.380    -536.581    -334.478
  H     -336.263    -533.091    -329.312
  H     -341.593    -535.565    -336.580
  H     -336.302    -531.837    -330.520
  H     -343.108    -534.809    -336.062
  P     -344.671    -533.413    -332.772
  C     -346.926    -533.812    -333.946
  O     -346.223    -533.818    -332.715
  O     -344.394    -532.158    -333.526
  O     -344.272    -533.349    -331.219
  H     -344.529    -534.137    -330.707
  H     -347.943    -534.097    -333.777
  H     -346.469    -534.505    -334.621
  H     -346.897    -532.829    -334.369

 6  7  8  9  10  11  12  13  14  15  16  26  30  31  32  33  35 0
 6-311+G(2d,p)
 ****
 37  38 0
 6-311+G(2d,p)
 ****
 1  2  3  4  5  17  18  19  20  21  22  23  24  25 0
 3-21G
 ****
 27  28  29  34  36  39  40  41  42  43  44  45  46 0
 3-21G
 ****


