%nproc=1
%NoSave
%Mem=1900MB
#P OB98/GEN NMR

erre ene a

0 1
  C      -45.606    -349.032    -284.553
  O      -45.960    -350.076    -285.438
  H      -46.499    -348.730    -284.000
  H      -45.232    -348.170    -285.110
  H      -44.851    -349.373    -283.838
  P      -44.817    -350.702    -286.377
  C      -46.391    -350.965    -288.420
  O      -45.268    -350.294    -287.868
  C      -47.252    -349.985    -289.215
  O      -47.604    -348.831    -288.420
  C      -46.581    -349.403    -290.455
  O      -46.475    -350.318    -291.532
  C      -47.537    -348.263    -290.756
  O      -48.739    -348.784    -291.354
  C      -47.809    -347.719    -289.332
  N      -46.936    -346.598    -288.982
  C      -47.141    -345.403    -289.680
  O      -48.009    -345.322    -290.547
  N      -46.328    -344.328    -289.402
  C      -45.381    -344.442    -288.522
  N      -44.603    -343.351    -288.292
  C      -45.117    -345.692    -287.781
  C      -45.924    -346.715    -288.054
  O      -44.520    -352.152    -286.169
  O      -43.548    -349.750    -286.154
  H      -49.096    -349.451    -290.738
  H      -42.807    -350.102    -286.706
  H      -44.297    -345.749    -287.080
  H      -45.787    -347.669    -287.554
  H      -48.854    -347.401    -289.228
  H      -47.125    -347.524    -291.449
  H      -45.602    -348.976    -290.205
  H      -48.187    -350.502    -289.468
  H      -44.809    -342.510    -288.818
  H      -46.961    -351.411    -287.598
  H      -43.797    -343.374    -287.683
  H      -46.060    -351.760    -289.095
  P      -44.997    -350.810    -291.925
  C      -45.527    -350.746    -294.478
  O      -44.723    -350.276    -293.410
  O      -45.171    -352.384    -292.098
  O      -43.924    -350.453    -290.938
  H      -44.884    -352.859    -291.294
  H      -45.209    -350.290    -295.392
  H      -46.550    -350.495    -294.291
  H      -45.429    -351.809    -294.557

 6  7  8  9  10  11  12  13  14  15  16  26  30  31  32  33  35 0
 6-311+G(2d,p)
 ****
 37  38 0
 6-311+G(2d,p)
 ****
 1  2  3  4  5  17  18  19  20  21  22  23  24  25 0
 3-21G
 ****
 27  28  29  34  36  39  40  41  42  43  44  45  46 0
 3-21G
 ****


