%nproc=1
%NoSave
%Mem=1900MB
#P OB98/GEN NMR

erre ene a

0 1
  C     -144.765    -101.552     103.507
  O     -143.798    -100.656     102.986
  P     -142.561    -100.254     103.930
  C     -143.222     -97.747     104.184
  O     -143.045     -99.004     104.814
  C     -142.202     -96.734     104.712
  O     -142.267     -95.541     103.888
  C     -142.425     -96.295     106.163
  O     -141.133     -96.028     106.723
  C     -143.192     -94.995     106.014
  O     -143.098     -94.164     107.167
  C     -142.538     -94.423     104.761
  N     -144.185     -89.642     104.723
  C     -143.377     -90.292     105.637
  N     -142.894     -89.541     106.650
  N     -143.068     -91.560     105.563
  C     -143.611     -92.177     104.488
  C     -144.456     -91.654     103.537
  C     -144.758     -90.242     103.609
  O     -145.398     -89.607     102.775
  N     -144.871     -92.610     102.651
  C     -144.215     -93.692     103.017
  N     -143.403     -93.468     104.096
  O     -141.523     -99.610     102.900
  O     -141.964    -101.371     104.727
  H     -143.546     -93.318     106.964
  H     -140.880    -100.275     102.587
  H     -144.372     -88.659     104.822
  H     -144.281     -94.657     102.539
  H     -141.588     -93.917     104.976
  H     -144.254     -95.211     105.840
  H     -143.065     -88.553     106.752
  H     -142.957     -97.034     106.769
  H     -142.273     -89.985     107.316
  H     -141.199     -97.160     104.591
  H     -144.227     -97.376     104.410
  H     -143.130     -97.861     103.100
  P     -141.022     -95.873     108.314
  C     -140.191     -93.420     108.271
  O     -141.206     -94.322     108.663
  O     -139.464     -96.128     108.589
  O     -141.862     -96.827     109.097
  H     -139.350     -96.549     109.461
  H     -140.616     -92.416     108.208
  H     -139.768     -93.685     107.298
  H     -139.396     -93.420     109.022
  H     -145.523    -101.726     102.772
  H     -145.209    -101.128     104.383
  H     -144.293    -102.479     103.759

 3  4  5  6  7  8  9  10  11  12  23  26  30  31 0
 6-311+G(2d,p)
 ****
 33  35  36  37  38 0
 6-311+G(2d,p)
 ****
 1  2  13  14  15  16  17  18  19  20  21  22  24  25 0
 3-21G
 ****
 27  28  29  32  34  39  40  41  42  43  44  45  46  47  48  49 0
 3-21G
 ****


