%nproc=1
%NoSave
%Mem=1900MB
#P OB98/GEN NMR

erre ene a

0 1
  C      161.339      47.435     -49.251
  O      162.480      47.351     -50.108
  P      163.856      46.874     -49.434
  C      164.938      49.205     -49.103
  O      164.396      48.048     -48.483
  C      166.084      49.810     -48.280
  O      166.585      51.021     -48.903
  C      165.683      50.168     -46.849
  O      166.826      49.951     -46.018
  C      165.418      51.658     -46.931
  O      165.497      52.269     -45.646
  C      166.504      52.085     -47.932
  N      166.230      53.374     -48.563
  C      166.428      54.516     -47.786
  O      166.751      54.413     -46.601
  N      166.218      55.748     -48.352
  C      165.792      55.829     -49.574
  N      165.598      57.079     -50.078
  C      165.512      54.648     -50.413
  C      165.754      53.467     -49.849
  O      164.887      46.870     -50.658
  O      163.770      45.527     -48.791
  H      166.445      52.367     -45.413
  H      165.369      46.024     -50.685
  H      165.138      54.764     -51.419
  H      165.583      52.545     -50.385
  H      167.480      52.157     -47.434
  H      164.419      51.844     -47.345
  H      164.836      49.586     -46.473
  H      166.907      49.086     -48.263
  H      165.809      57.864     -49.474
  H      164.157      49.956     -49.232
  H      165.269      57.259     -51.014
  H      165.276      48.942     -50.111
  P      166.855      48.645     -45.091
  C      166.561      49.989     -42.922
  O      165.988      49.039     -43.799
  O      168.346      48.702     -44.500
  O      166.570      47.322     -45.716
  H      168.518      47.907     -43.964
  H      165.822      50.255     -42.163
  H      166.847      50.891     -43.469
  H      167.435      49.559     -42.424
  H      160.491      47.762     -49.816
  H      161.534      48.134     -48.465
  H      161.137      46.472     -48.830

 3  4  5  6  7  8  9  10  11  12  13  21  23  27  28  29  30  32 0
 6-311+G(2d,p)
 ****
 34  35 0
 6-311+G(2d,p)
 ****
 1  2  14  15  16  17  18  19  20  22  24  25  26 0
 3-21G
 ****
 31  33  36  37  38  39  40  41  42  43  44  45  46 0
 3-21G
 ****


