%nproc=1
%NoSave
%Mem=1900MB
#P OB98/GEN NMR

erre ene a

0 1
  C     -276.853    -587.061    -895.460
  O     -277.024    -588.398    -895.900
  P     -277.976    -588.664    -897.170
  C     -278.664    -590.810    -898.450
  O     -277.689    -590.167    -897.630
  C     -278.261    -592.256    -898.710
  O     -277.034    -592.313    -899.470
  C     -277.987    -593.069    -897.450
  O     -279.183    -593.550    -896.850
  C     -277.180    -594.233    -898.010
  O     -278.056    -595.196    -898.620
  C     -276.331    -593.527    -899.100
  N     -271.760    -595.400    -897.990
  C     -272.841    -596.001    -898.630
  N     -272.700    -597.301    -898.950
  N     -273.955    -595.386    -898.900
  C     -273.966    -594.078    -898.520
  C     -272.950    -593.381    -897.890
  C     -271.732    -594.082    -897.570
  O     -270.759    -593.619    -896.970
  N     -273.328    -592.079    -897.650
  C     -274.559    -592.000    -898.140
  N     -274.993    -593.199    -898.630
  O     -277.297    -587.784    -898.320
  O     -279.405    -588.299    -896.960
  H     -278.618    -595.547    -897.890
  H     -277.922    -587.639    -899.050
  H     -270.933    -595.924    -897.800
  H     -275.158    -591.099    -898.140
  H     -276.237    -594.142    -900.000
  H     -276.604    -594.750    -897.250
  H     -271.879    -597.860    -898.700
  H     -277.378    -592.510    -896.740
  H     -273.491    -597.797    -899.350
  H     -279.055    -592.738    -899.320
  H     -278.758    -590.282    -899.400
  H     -279.632    -590.775    -897.950
  P     -279.228    -593.586    -895.240
  C     -281.193    -593.706    -893.550
  O     -280.773    -593.400    -894.860
  O     -278.551    -592.182    -894.840
  O     -278.525    -594.745    -894.630
  H     -278.156    -592.253    -893.960
  H     -282.199    -593.270    -893.390
  H     -280.500    -593.276    -892.810
  H     -281.252    -594.784    -893.420
  H     -276.198    -587.045    -894.614
  H     -277.803    -586.652    -895.184
  H     -276.429    -586.477    -896.250

 3  4  5  6  7  8  9  10  11  12  23  26  30  31 0
 6-311+G(2d,p)
 ****
 33  35  36  37  38 0
 6-311+G(2d,p)
 ****
 1  2  13  14  15  16  17  18  19  20  21  22  24  25 0
 3-21G
 ****
 27  28  29  32  34  39  40  41  42  43  44  45  46  47  48  49 0
 3-21G
 ****


