%nproc=1
%NoSave
%Mem=1900MB
#P OB98/GEN NMR

erre ene a

0 1
  C      532.741    -267.680      75.119
  O      532.143    -267.181      76.320
  P      533.130    -266.657      77.475
  C      532.367    -264.160      77.247
  O      532.449    -265.323      78.063
  C      531.190    -263.282      77.680
  O      529.927    -263.927      77.310
  C      531.140    -262.986      79.183
  O      530.674    -261.630      79.324
  C      530.096    -263.956      79.687
  O      529.520    -263.540      80.923
  C      529.122    -263.967      78.498
  N      528.235    -265.135      78.500
  C      527.262    -265.184      79.499
  O      527.181    -264.349      80.402
  N      526.419    -266.256      79.455
  C      526.501    -267.304      78.585
  O      525.717    -268.247      78.595
  C      527.615    -267.256      77.630
  C      528.426    -266.193      77.637
  O      534.368    -266.134      76.617
  O      533.451    -267.710      78.484
  H      534.112    -265.708      75.776
  H      528.866    -264.216      81.205
  H      525.689    -266.299      80.150
  H      527.750    -268.099      76.961
  H      529.271    -266.131      76.959
  H      528.493    -263.069      78.507
  H      530.536    -264.946      79.826
  H      532.111    -263.099      79.674
  H      531.250    -262.337      77.112
  H      532.225    -264.453      76.198
  H      533.315    -263.619      77.296
  P      531.442    -260.666      80.358
  C      531.502    -258.672      78.665
  O      531.114    -259.162      79.932
  O      532.958    -260.868      79.859
  O      531.262    -261.018      81.796
  H      533.047    -260.794      78.892
  H      530.991    -257.729      78.476
  H      531.253    -259.378      77.867
  H      532.590    -258.490      78.657
  H      531.974    -267.993      74.442
  H      533.371    -268.513      75.353
  H      533.325    -266.908      74.664

 3  4  5  6  7  8  9  10  11  12  13  24  28  29  30  31  32 0
 6-311+G(2d,p)
 ****
 33  34 0
 6-311+G(2d,p)
 ****
 1  2  14  15  16  17  18  19  20  21  22  23  25  26  27 0
 3-21G
 ****
 35  36  37  38  39  40  41  42  43  44  45 0
 3-21G
 ****


