%nproc=1
%NoSave
%Mem=1900MB
#P OB98/GEN NMR

erre ene a

0 1
  C      194.108    -324.090    -571.839
  O      192.786    -324.578    -571.631
  P      191.581    -323.785    -572.342
  C      191.260    -321.564    -570.976
  O      191.823    -322.218    -572.101
  C      191.435    -320.039    -571.078
  O      190.578    -319.545    -572.144
  C      191.032    -319.247    -569.839
  O      191.632    -317.948    -569.905
  C      189.540    -319.128    -570.020
  O      188.984    -318.090    -569.217
  C      189.406    -318.924    -571.549
  N      188.177    -319.511    -572.129
  C      187.903    -319.276    -573.475
  O      188.628    -318.620    -574.223
  N      186.731    -319.802    -573.955
  C      185.844    -320.552    -573.238
  O      184.763    -320.920    -573.694
  C      186.245    -320.880    -571.863
  C      187.364    -320.344    -571.380
  O      190.316    -324.134    -571.433
  O      191.375    -324.168    -573.770
  H      189.592    -317.314    -569.306
  H      189.743    -324.776    -571.888
  H      186.486    -319.592    -574.908
  H      185.595    -321.536    -571.294
  H      187.663    -320.567    -570.354
  H      189.412    -317.857    -571.814
  H      189.046    -320.062    -569.728
  H      191.285    -319.730    -568.887
  H      192.472    -319.811    -571.356
  H      191.724    -321.940    -570.062
  H      190.190    -321.802    -570.911
  P      192.723    -317.562    -568.796
  C      191.151    -317.179    -566.796
  O      192.112    -318.032    -567.383
  O      193.243    -316.168    -568.841
  O      193.882    -318.643    -569.042
  H      194.713    -318.335    -568.644
  H      190.473    -317.779    -566.189
  H      190.574    -316.635    -567.553
  H      191.661    -316.460    -566.146
  H      194.804    -324.709    -571.312
  H      194.178    -323.085    -571.477
  H      194.335    -324.109    -572.884

 3  4  5  6  7  8  9  10  11  12  13  23  28  29  30  31  32 0
 6-311+G(2d,p)
 ****
 33  34 0
 6-311+G(2d,p)
 ****
 1  2  14  15  16  17  18  19  20  21  22  24  25  26  27 0
 3-21G
 ****
 35  36  37  38  39  40  41  42  43  44  45 0
 3-21G
 ****


