%nproc=1
%NoSave
%Mem=1900MB
#P OB98/GEN NMR

erre ene a

0 1
  C      404.136     274.675     430.827
  O      403.539     275.092     429.599
  P      402.767     274.002     428.716
  C      400.549     273.926     430.045
  O      401.188     274.283     428.821
  C      399.120     273.428     429.786
  O      398.585     272.881     431.017
  C      398.130     274.513     429.350
  O      397.999     274.794     427.956
  C      396.798     273.904     429.797
  O      396.330     272.979     428.796
  C      397.167     273.143     431.069
  N      393.696     273.744     434.782
  C      393.735     272.921     433.707
  N      394.701     272.829     432.763
  C      395.698     273.681     433.020
  C      395.795     274.578     434.075
  C      394.727     274.596     434.984
  N      394.675     275.437     436.070
  N      396.971     275.299     433.996
  C      397.564     274.861     432.902
  N      396.844     273.874     432.285
  O      403.179     272.581     428.922
  O      403.093     274.475     427.219
  H      396.012     273.519     428.048
  H      403.219     273.682     426.658
  H      392.883     272.257     433.587
  H      398.506     275.226     432.525
  H      396.654     272.177     431.136
  H      396.015     274.657     429.920
  H      398.308     275.453     429.896
  H      399.148     272.631     429.037
  H      400.528     274.798     430.708
  H      393.851     275.419     436.651
  H      395.411     276.119     436.208
  H      401.173     273.172     430.531
  P      398.015     276.297     427.401
  C      400.529     276.899     427.750
  O      399.500     276.544     426.858
  O      397.517     277.325     428.355
  O      397.155     276.176     426.056
  H      397.583     275.664     425.353
  H      401.492     276.807     427.227
  H      400.538     276.236     428.619
  H      400.402     277.935     428.073
  H      404.610     275.512     431.296
  H      404.865     273.917     430.630
  H      403.381     274.283     431.476

 3  4  5  6  7  8  9  10  11  12  22  25  29  30  31  32 0
 6-311+G(2d,p)
 ****
 33  36  37 0
 6-311+G(2d,p)
 ****
 1  2  13  14  15  16  17  18  19  20  21  23  24  26 0
 3-21G
 ****
 27  28  34  35  38  39  40  41  42  43  44  45  46  47  48 0
 3-21G
 ****


