%nproc=1
%NoSave
%Mem=1900MB
#P OB98/GEN NMR

erre ene a

0 1
  C     -272.701    -223.885      81.371
  O     -273.717    -223.814      82.357
  P     -273.980    -222.404      83.074
  C     -275.804    -221.750      81.339
  O     -274.584    -221.396      81.975
  C     -276.490    -220.512      80.753
  O     -275.633    -219.914      79.740
  C     -277.837    -220.814      80.088
  O     -278.719    -219.699      80.272
  C     -277.496    -220.885      78.614
  O     -278.639    -220.627      77.798
  C     -276.403    -219.822      78.520
  N     -276.164    -219.521      73.481
  C     -277.105    -219.002      74.345
  N     -278.173    -218.396      73.781
  N     -277.008    -219.066      75.648
  C     -275.891    -219.706      76.071
  C     -274.877    -220.247      75.310
  C     -275.003    -220.183      73.872
  O     -274.219    -220.645      73.047
  N     -273.891    -220.784      76.096
  C     -274.320    -220.607      77.333
  N     -275.545    -219.990      77.366
  O     -272.496    -221.844      83.323
  O     -274.741    -222.486      84.354
  H     -278.352    -220.719      76.869
  H     -272.266    -221.929      84.265
  H     -276.289    -219.457      72.484
  H     -273.804    -220.924      78.225
  H     -276.828    -218.812      78.483
  H     -277.112    -221.881      78.362
  H     -278.341    -218.374      72.787
  H     -278.326    -221.728      80.447
  H     -278.899    -218.046      74.391
  H     -276.609    -219.767      81.546
  H     -276.467    -222.208      82.076
  H     -275.610    -222.482      80.549
  P     -280.271    -220.056      80.489
  C     -279.964    -219.722      83.051
  O     -280.398    -220.563      81.999
  O     -280.465    -221.386      79.619
  O     -281.211    -218.970      80.080
  H     -281.396    -221.480      79.341
  H     -280.822    -219.464      83.676
  H     -279.502    -218.801      82.679
  H     -279.229    -220.265      83.655
  H     -272.645    -224.882      80.987
  H     -271.761    -223.618      81.807
  H     -272.929    -223.209      80.574

 3  4  5  6  7  8  9  10  11  12  23  26  30  31 0
 6-311+G(2d,p)
 ****
 33  35  36  37  38 0
 6-311+G(2d,p)
 ****
 1  2  13  14  15  16  17  18  19  20  21  22  24  25 0
 3-21G
 ****
 27  28  29  32  34  39  40  41  42  43  44  45  46  47  48  49 0
 3-21G
 ****


