%nproc=1
%NoSave
%Mem=1900MB
#P OB98/GEN NMR

erre ene a

0 1
  C     -582.095     -87.844    -531.320
  O     -583.058     -87.054    -531.991
  H     -581.106     -87.385    -531.396
  H     -582.374     -87.912    -530.264
  H     -582.075     -88.852    -531.748
  P     -582.770     -86.743    -533.539
  C     -585.067     -87.658    -534.318
  O     -583.655     -87.787    -534.382
  C     -585.733     -88.955    -534.762
  O     -585.298     -90.050    -533.924
  C     -587.254     -88.955    -534.665
  O     -587.857     -88.272    -535.749
  C     -587.540     -90.451    -534.714
  O     -587.497     -90.906    -536.078
  C     -586.357     -91.041    -533.925
  N     -587.379     -94.856    -530.637
  C     -587.095     -94.854    -531.961
  N     -586.850     -93.808    -532.770
  C     -586.895     -92.654    -532.082
  C     -587.174     -92.492    -530.734
  C     -587.429     -93.660    -529.999
  N     -587.736     -93.650    -528.650
  N     -587.118     -91.164    -530.379
  C     -586.816     -90.523    -531.493
  N     -586.679     -91.382    -532.551
  O     -581.274     -87.271    -533.755
  O     -582.909     -85.313    -533.939
  H     -587.530     -91.876    -536.052
  H     -580.818     -86.684    -534.389
  H     -587.061     -95.833    -532.433
  H     -586.685     -89.454    -531.574
  H     -585.955     -91.936    -534.415
  H     -588.521     -90.718    -534.310
  H     -587.593     -88.555    -533.697
  H     -585.409     -89.170    -535.786
  H     -585.388     -86.846    -534.983
  H     -587.716     -94.518    -528.144
  H     -587.763     -92.749    -528.181
  H     -585.355     -87.407    -533.290
  P     -588.557     -86.858    -535.442
  C     -587.419     -85.648    -537.440
  O     -587.552     -85.744    -536.026
  O     -588.386     -86.707    -533.854
  O     -589.984     -86.749    -535.861
  H     -589.081     -86.124    -533.495
  H     -586.724     -84.871    -537.681
  H     -588.371     -85.422    -537.873
  H     -587.062     -86.579    -537.829

 6  7  8  9  10  11  12  13  14  15  25  28  32  33  34  35 0
 6-311+G(2d,p)
 ****
 36  39  40 0
 6-311+G(2d,p)
 ****
 1  2  3  4  5  16  17  18  19  20  21  22  23  24 0
 3-21G
 ****
 26  27  29  30  31  37  38  41  42  43  44  45  46  47  48 0
 3-21G
 ****


