%nproc=1
%NoSave
%Mem=1900MB
#P OB98/GEN NMR

erre ene a

0 1
  C       60.481     153.665     583.476
  O       61.325     154.323     582.546
  P       62.727     154.970     583.007
  C       61.603     157.302     583.018
  O       62.318     156.325     583.766
  C       62.171     158.693     583.301
  O       61.902     159.061     584.662
  C       63.682     158.799     583.131
  O       64.043     158.851     581.755
  C       63.970     160.065     583.940
  O       63.662     161.227     583.166
  C       62.975     159.921     585.105
  N       63.595     159.412     586.329
  C       64.441     160.285     587.018
  O       64.646     161.433     586.596
  N       65.033     159.867     588.181
  C       64.806     158.653     588.614
  N       65.360     158.308     589.808
  C       63.965     157.678     587.893
  C       63.390     158.125     586.774
  O       63.726     155.139     581.916
  O       63.225     154.038     584.203
  H       64.105     161.111     582.297
  H       63.766     153.264     583.904
  H       63.828     156.678     588.287
  H       62.748     157.476     586.197
  H       62.511     160.893     585.327
  H       65.014     160.140     584.266
  H       64.179     157.935     583.602
  H       61.662     159.405     582.642
  H       65.785     159.056     590.351
  H       60.551     157.276     583.331
  H       65.012     157.525     590.346
  H       61.662     157.056     581.951
  P       65.480     158.263     581.351
  C       66.577     160.616     581.235
  O       66.560     159.341     581.865
  O       65.500     158.419     579.757
  O       65.723     156.861     581.791
  H       65.308     157.560     579.321
  H       67.183     161.298     581.854
  H       65.563     161.024     581.157
  H       67.035     160.538     580.242
  H       59.606     153.309     582.974
  H       60.196     154.351     584.246
  H       61.004     152.839     583.910

 3  4  5  6  7  8  9  10  11  12  13  23  27  28  29  30  32 0
 6-311+G(2d,p)
 ****
 34  35 0
 6-311+G(2d,p)
 ****
 1  2  14  15  16  17  18  19  20  21  22  24  25  26 0
 3-21G
 ****
 31  33  36  37  38  39  40  41  42  43  44  45  46 0
 3-21G
 ****


