%nproc=1
%NoSave
%Mem=1900MB
#P OB98/GEN NMR

erre ene a

0 1
  C      125.750    -261.219     120.518
  O      124.566    -261.978     120.371
  H      126.599    -261.832     120.206
  H      125.895    -260.926     121.561
  H      125.710    -260.328     119.884
  P      123.182    -261.336     120.875
  C      123.819    -262.286     123.200
  O      122.818    -262.178     122.199
  C      123.186    -262.687     124.535
  O      124.179    -262.748     125.582
  C      122.127    -261.724     125.061
  O      120.892    -261.802     124.359
  C      122.013    -262.213     126.499
  O      121.254    -263.434     126.532
  C      123.503    -262.476     126.841
  N      124.136    -261.348     127.528
  C      124.003    -261.312     128.924
  O      123.381    -262.193     129.517
  N      124.547    -260.256     129.613
  C      125.157    -259.306     128.968
  N      125.637    -258.257     129.691
  C      125.336    -259.314     127.500
  C      124.799    -260.347     126.852
  O      122.088    -261.238     119.862
  O      123.602    -259.922     121.500
  H      121.118    -263.662     127.470
  H      122.776    -259.479     121.817
  H      125.841    -258.494     127.008
  H      124.878    -260.417     125.766
  H      123.605    -263.371     127.463
  H      121.514    -261.496     127.158
  H      122.506    -260.695     125.069
  H      122.785    -263.707     124.416
  H      125.459    -258.268     130.688
  H      124.329    -261.321     123.285
  H      125.866    -257.372     129.254
  H      124.550    -263.055     122.925
  P      120.226    -260.434     123.854
  C      119.361    -259.394     126.085
  O      119.048    -260.084     124.886
  O      119.453    -260.879     122.528
  O      121.177    -259.298     123.611
  H      120.004    -260.736     121.733
  H      118.467    -259.243     126.653
  H      119.797    -258.446     125.848
  H      120.055    -259.972     126.659

 6  7  8  9  10  11  12  13  14  15  16  26  30  31  32  33  35 0
 6-311+G(2d,p)
 ****
 37  38 0
 6-311+G(2d,p)
 ****
 1  2  3  4  5  17  18  19  20  21  22  23  24  25 0
 3-21G
 ****
 27  28  29  34  36  39  40  41  42  43  44  45  46 0
 3-21G
 ****


