%nproc=1
%NoSave
%Mem=1900MB
#P OB98/GEN NMR

erre ene a

0 1
  C     -559.080     152.695    -755.305
  O     -558.931     154.033    -755.723
  H     -559.118     152.675    -754.210
  H     -558.222     152.097    -755.623
  H     -560.004     152.266    -755.696
  P     -558.799     154.355    -757.287
  C     -560.991     155.695    -757.369
  O     -560.310     154.527    -757.815
  C     -562.365     155.819    -758.033
  O     -562.931     154.492    -758.231
  C     -563.377     156.637    -757.212
  O     -564.034     157.575    -758.057
  C     -564.369     155.589    -756.726
  O     -565.650     156.132    -756.434
  C     -564.326     154.591    -757.891
  N     -564.898     153.303    -757.530
  C     -566.302     153.229    -757.524
  O     -566.965     154.225    -757.822
  N     -566.905     152.068    -757.121
  C     -566.175     151.069    -756.734
  N     -566.832     149.954    -756.335
  C     -564.693     151.111    -756.701
  C     -564.129     152.242    -757.109
  O     -557.964     153.391    -758.056
  O     -558.237     155.856    -757.349
  H     -565.956     156.644    -757.213
  H     -557.804     155.997    -758.224
  H     -564.138     150.251    -756.356
  H     -563.051     152.368    -757.113
  H     -564.859     154.982    -758.764
  H     -563.987     155.115    -755.817
  H     -562.915     157.165    -756.379
  H     -562.225     156.245    -759.033
  H     -567.842     149.973    -756.363
  H     -560.366     156.569    -757.605
  H     -566.380     149.127    -755.977
  H     -561.115     155.628    -756.286
  P     -563.572     159.105    -757.925
  C     -561.926     158.889    -759.922
  O     -562.095     159.224    -758.547
  O     -563.343     159.288    -756.345
  O     -564.572     160.078    -758.448
  H     -564.034     159.859    -755.978
  H     -560.899     159.014    -760.196
  H     -562.536     159.530    -760.523
  H     -562.216     157.871    -760.079

 6  7  8  9  10  11  12  13  14  15  16  26  30  31  32  33  35 0
 6-311+G(2d,p)
 ****
 37  38 0
 6-311+G(2d,p)
 ****
 1  2  3  4  5  17  18  19  20  21  22  23  24  25 0
 3-21G
 ****
 27  28  29  34  36  39  40  41  42  43  44  45  46 0
 3-21G
 ****


