%nproc=1
%NoSave
%Mem=1900MB
#P OB98/GEN NMR

erre ene a

0 1
  C     -132.723      -3.067      37.690
  O     -132.886      -4.369      37.162
  H     -132.383      -2.404      36.891
  H     -131.970      -3.080      38.481
  H     -133.673      -2.693      38.083
  P     -133.472      -5.486      38.153
  C     -132.690      -6.567      40.379
  O     -132.440      -5.582      39.385
  C     -131.450      -6.784      41.247
  O     -130.378      -7.319      40.413
  C     -130.915      -5.506      41.919
  O     -130.391      -5.867      43.202
  C     -129.749      -5.117      41.022
  O     -128.810      -4.275      41.687
  C     -129.215      -6.502      40.656
  N     -124.854      -4.655      38.943
  C     -125.444      -4.561      40.190
  N     -124.765      -3.865      41.128
  N     -126.595      -5.099      40.492
  C     -127.145      -5.792      39.468
  C     -126.670      -5.959      38.187
  C     -125.406      -5.334      37.857
  O     -124.845      -5.367      36.765
  N     -127.539      -6.711      37.430
  C     -128.533      -6.998      38.255
  N     -128.340      -6.464      39.499
  O     -133.218      -6.844      37.340
  O     -134.906      -5.321      38.531
  H     -128.001      -4.230      41.133
  H     -134.010      -7.081      36.823
  H     -123.973      -4.213      38.759
  H     -129.411      -7.580      37.999
  H     -128.640      -6.957      41.473
  H     -130.113      -4.588      40.133
  H     -123.852      -3.465      40.984
  H     -131.660      -4.710      42.032
  H     -125.157      -3.820      42.064
  H     -131.678      -7.553      41.996
  H     -132.953      -7.510      39.888
  H     -133.531      -6.244      41.003
  P     -131.377      -5.797      44.466
  C     -132.614      -3.902      45.752
  O     -131.554      -4.255      44.877
  O     -130.473      -6.377      45.656
  O     -132.641      -6.575      44.300
  H     -131.039      -6.786      46.336
  H     -132.596      -2.847      45.927
  H     -132.497      -4.419      46.681
  H     -133.549      -4.174      45.308

 6  7  8  9  10  11  12  13  14  15  26  29  33  34 0
 6-311+G(2d,p)
 ****
 36  38  39  40  41 0
 6-311+G(2d,p)
 ****
 1  2  3  4  5  16  17  18  19  20  21  22  23  24  25 0
 3-21G
 ****
 27  28  30  31  32  35  37  42  43  44  45  46  47 0
 3-21G
 ****
 48  49 0
 3-21G
 ****


