%nproc=1
%NoSave
%Mem=1900MB
#P OB98/GEN NMR

erre ene a

0 1
  C      -91.332    -273.931     231.611
  O      -90.071    -274.607     231.766
  P      -89.629    -275.105     233.234
  C      -88.655    -273.967     235.384
  O      -88.881    -273.898     233.982
  C      -87.586    -272.947     235.802
  O      -86.265    -273.441     235.483
  C      -87.694    -271.603     235.097
  O      -88.738    -270.803     235.629
  C      -86.299    -271.030     235.339
  O      -86.219    -270.416     236.638
  C      -85.419    -272.289     235.267
  N      -84.678    -272.393     234.014
  C      -83.532    -271.614     233.906
  O      -83.160    -270.831     234.780
  N      -82.829    -271.746     232.739
  C      -83.195    -272.507     231.659
  O      -82.531    -272.570     230.634
  C      -84.460    -273.241     231.801
  C      -85.134    -273.149     232.955
  O      -88.405    -276.091     232.898
  O      -90.680    -275.814     234.024
  H      -86.548    -271.083     237.281
  H      -88.335    -276.772     233.596
  H      -81.974    -271.219     232.646
  H      -84.800    -273.841     230.963
  H      -86.072    -273.686     233.074
  H      -84.701    -272.294     236.099
  H      -86.035    -270.261     234.606
  H      -87.832    -271.756     234.014
  H      -87.649    -272.818     236.894
  H      -88.318    -274.972     235.642
  H      -89.601    -273.773     235.908
  P      -90.154    -270.872     234.882
  C      -90.887    -270.428     232.406
  O      -89.850    -270.431     233.365
  O      -90.909    -269.615     235.536
  O      -90.856    -272.184     235.055
  H      -90.294    -268.888     235.746
  H      -91.853    -270.168     232.855
  H      -90.957    -271.422     231.943
  H      -90.655    -269.689     231.635
  H      -91.472    -273.669     230.583
  H      -91.337    -273.044     232.209
  H      -92.124    -274.578     231.926

 3  4  5  6  7  8  9  10  11  12  13  23  28  29  30  31  32 0
 6-311+G(2d,p)
 ****
 33  34 0
 6-311+G(2d,p)
 ****
 1  2  14  15  16  17  18  19  20  21  22  24  25  26 0
 3-21G
 ****
 27  35  36  37  38  39  40  41  42  43  44  45 0
 3-21G
 ****


