%nproc=1
%NoSave
%Mem=1900MB
#P OB98/GEN NMR

erre ene a

0 1
  C      -34.389     820.105     206.985
  O      -34.904     819.619     205.763
  H      -33.335     819.802     207.062
  H      -34.934     819.672     207.827
  H      -34.440     821.201     207.020
  P      -36.382     820.056     205.324
  C      -35.822     821.140     203.049
  O      -36.421     820.037     203.726
  C      -35.558     820.764     201.583
  O      -34.568     819.711     201.512
  C      -36.783     820.237     200.853
  O      -37.663     821.283     200.495
  C      -36.122     819.521     199.674
  O      -35.769     820.461     198.642
  C      -34.868     818.923     200.333
  N      -35.010     817.508     200.664
  C      -35.263     816.636     199.607
  O      -35.403     817.028     198.452
  N      -35.395     815.318     199.939
  C      -35.399     814.798     201.209
  O      -35.620     813.613     201.458
  C      -35.157     815.772     202.283
  C      -34.962     817.057     201.970
  O      -36.903     821.304     205.957
  O      -37.281     818.786     205.725
  H      -35.031     820.065     198.143
  H      -37.790     818.993     206.535
  H      -35.595     814.679     199.187
  H      -35.136     815.388     203.304
  H      -34.787     817.784     202.755
  H      -33.996     819.031     199.667
  H      -36.782     818.781     199.222
  H      -37.301     819.488     201.469
  H      -35.153     821.655     201.071
  H      -34.880     821.378     203.540
  H      -36.496     821.997     203.104
  P      -39.179     820.952     200.106
  C      -40.243     821.853     202.280
  O      -40.120     822.016     200.860
  O      -39.589     819.519     200.270
  O      -39.287     821.408     198.575
  H      -39.531     820.641     198.025
  H      -40.888     822.611     202.671
  H      -39.278     821.937     202.734
  H      -40.655     820.889     202.494

 6  7  8  9  10  11  12  13  14  15  16  26  31  32  33  34  35 0
 6-311+G(2d,p)
 ****
 36  37 0
 6-311+G(2d,p)
 ****
 1  2  3  4  5  17  18  19  20  21  22  23  24  25 0
 3-21G
 ****
 27  28  29  30  38  39  40  41  42  43  44  45 0
 3-21G
 ****


