%nproc=1
%NoSave
%Mem=1900MB
#P OB98/GEN NMR

erre ene a

0 1
  C        7.018     -19.862     -91.957
  O        8.053     -20.158     -92.896
  P        7.896     -19.489     -94.348
  C        8.767     -21.665     -95.456
  O        8.896     -20.256     -95.343
  C        9.810     -22.238     -96.421
  O        9.379     -22.069     -97.805
  C       11.193     -21.578     -96.297
  O       12.162     -22.604     -96.545
  C       11.167     -20.572     -97.435
  O       12.452     -20.082     -97.779
  C       10.455     -21.400     -98.498
  N       11.388     -19.883    -103.276
  C       12.089     -20.660    -102.422
  N       11.774     -21.015    -101.159
  C       10.592     -20.485    -100.803
  C        9.764     -19.673    -101.562
  C       10.205     -19.371    -102.862
  N        9.509     -18.564    -103.732
  N        8.641     -19.305    -100.837
  C        8.837     -19.831     -99.642
  N        9.953     -20.616     -99.601
  O        8.562     -18.047     -94.169
  O        6.482     -19.410     -94.819
  H       12.865     -19.658     -97.000
  H        7.875     -17.368     -94.034
  H       13.032     -21.043    -102.803
  H        8.204     -19.677     -98.778
  H       11.107     -22.175     -98.923
  H       10.554     -19.710     -97.143
  H       11.381     -21.135     -95.315
  H        9.895     -23.316     -96.236
  H        7.768     -21.922     -95.817
  H        9.909     -18.401    -104.642
  H        8.630     -18.153    -103.457
  H        8.859     -22.112     -94.461
  P       12.853     -23.333     -95.293
  C       14.999     -23.498     -96.687
  O       14.032     -24.209     -95.940
  O       11.762     -24.465     -94.976
  O       13.194     -22.467     -94.129
  H       11.515     -24.951     -95.782
  H       15.781     -24.195     -96.999
  H       15.448     -22.711     -96.075
  H       14.537     -23.063     -97.577
  H        7.224     -20.357     -91.031
  H        6.079     -20.202     -92.342
  H        6.975     -18.805     -91.795

 3  4  5  6  7  8  9  10  11  12  22  25  29  30  31  32 0
 6-311+G(2d,p)
 ****
 33  36  37 0
 6-311+G(2d,p)
 ****
 1  2  13  14  15  16  17  18  19  20  21  23  24  26 0
 3-21G
 ****
 27  28  34  35  38  39  40  41  42  43  44  45  46  47  48 0
 3-21G
 ****


