%nproc=1
%NoSave
%Mem=1900MB
#P OB98/GEN NMR

erre ene a

0 1
  C     -202.887     146.073       3.215
  O     -201.848     145.227       3.664
  H     -202.985     145.963       2.132
  H     -202.642     147.113       3.442
  H     -203.833     145.800       3.686
  P     -201.596     145.167       5.248
  C     -200.845     142.694       5.032
  O     -201.715     143.620       5.667
  C     -200.605     141.479       5.924
  O     -199.939     141.914       7.146
  C     -201.886     140.737       6.339
  O     -201.583     139.338       6.414
  C     -202.128     141.244       7.751
  O     -202.948     140.364       8.516
  C     -200.688     141.362       8.247
  N     -200.119     141.217      13.242
  C     -200.131     140.197      12.311
  N     -199.966     138.942      12.781
  N     -200.290     140.390      11.029
  C     -200.410     141.698      10.696
  C     -200.420     142.797      11.519
  C     -200.269     142.567      12.941
  O     -200.270     143.428      13.815
  N     -200.594     143.952      10.798
  C     -200.688     143.550       9.544
  N     -200.582     142.191       9.431
  O     -202.930     145.822       5.839
  O     -200.369     145.866       5.727
  H     -202.500     139.494       8.557
  H     -202.800     146.778       5.989
  H     -200.005     141.012      14.220
  H     -200.834     144.195       8.688
  H     -200.253     140.387       8.502
  H     -202.615     142.227       7.722
  H     -199.791     138.722      13.748
  H     -202.738     140.897       5.671
  H     -199.928     138.185      12.109
  H     -199.911     140.802       5.413
  H     -199.887     143.187       4.832
  H     -201.288     142.378       4.081
  P     -201.779     138.455       5.092
  C     -199.351     137.595       4.730
  O     -200.394     138.450       4.286
  O     -202.715     139.381       4.180
  O     -202.394     137.117       5.333
  H     -203.247     138.826       3.581
  H     -198.500     137.709       4.091
  H     -199.686     136.579       4.701
  H     -199.081     137.853       5.733

 6  7  8  9  10  11  12  13  14  15  26  29  33  34 0
 6-311+G(2d,p)
 ****
 36  38  39  40  41 0
 6-311+G(2d,p)
 ****
 1  2  3  4  5  16  17  18  19  20  21  22  23  24  25 0
 3-21G
 ****
 27  28  30  31  32  35  37  42  43  44  45  46  47 0
 3-21G
 ****
 48  49 0
 3-21G
 ****


