%nproc=1
%NoSave
%Mem=1900MB
#P OB98/GEN NMR

erre ene a

0 1
  C      624.867    -115.236     311.566
  O      624.666    -113.954     312.135
  H      625.253    -115.110     310.552
  H      623.921    -115.779     311.523
  H      625.594    -115.800     312.153
  P      624.114    -113.919     313.640
  C      625.782    -112.007     314.231
  O      624.436    -112.448     314.197
  C      625.957    -110.896     315.274
  O      625.401    -109.657     314.730
  C      625.231    -111.163     316.601
  O      625.947    -110.498     317.647
  C      623.898    -110.465     316.371
  O      623.191    -110.307     317.582
  C      624.398    -109.204     315.668
  N      621.251    -105.176     315.888
  C      622.226    -105.598     316.718
  N      623.031    -106.676     316.586
  C      622.762    -107.330     315.446
  C      621.805    -107.018     314.494
  C      621.016    -105.880     314.748
  N      620.020    -105.457     313.913
  N      621.826    -107.937     313.454
  C      622.778    -108.788     313.772
  N      623.368    -108.469     314.971
  O      625.138    -114.862     314.432
  O      622.701    -114.361     313.815
  H      622.357    -109.815     317.433
  H      624.780    -115.766     314.488
  H      622.380    -104.992     317.606
  H      623.082    -109.650     313.187
  H      624.886    -108.513     316.364
  H      623.255    -111.050     315.709
  H      625.139    -112.227     316.837
  H      627.027    -110.714     315.430
  H      626.054    -111.633     313.240
  H      626.438    -112.851     314.487
  H      619.487    -104.637     314.179
  H      619.822    -105.981     313.068
  P      627.370    -111.079     318.120
  C      627.227    -109.166     319.895
  O      627.749    -110.434     319.535
  O      628.381    -110.327     317.131
  O      627.528    -112.563     318.008
  H      629.179    -110.877     316.990
  H      627.584    -108.896     320.867
  H      626.158    -109.211     319.908
  H      627.545    -108.434     319.182

 6  7  8  9  10  11  12  13  14  15  25  28  32  33  34  35 0
 6-311+G(2d,p)
 ****
 36  37  40 0
 6-311+G(2d,p)
 ****
 1  2  3  4  5  16  17  18  19  20  21  22  23  24 0
 3-21G
 ****
 26  27  29  30  31  38  39 41  42  43  44  45  46  47  48 0
 3-21G
 ****


