%nproc=1
%NoSave
%Mem=1900MB
#P OB98/GEN NMR

erre ene a

0 1
  C     -608.655     776.301    -890.620
  O     -608.117     775.413    -891.570
  P     -608.533     775.508    -893.120
  C     -606.196     776.395    -893.730
  O     -607.164     775.403    -893.990
  C     -604.825     775.911    -894.230
  O     -604.324     774.815    -893.430
  C     -604.848     775.367    -895.660
  O     -605.154     776.259    -896.700
  C     -603.531     774.624    -895.720
  O     -602.446     775.540    -896.000
  C     -603.400     774.078    -894.270
  N     -603.664     772.636    -894.230
  C     -602.714     771.847    -894.850
  O     -601.723     772.255    -895.430
  N     -602.974     770.467    -894.830
  C     -604.108     769.901    -894.320
  O     -604.287     768.674    -894.370
  C     -605.059     770.796    -893.670
  C     -604.819     772.092    -893.640
  O     -609.380     776.693    -893.450
  O     -609.237     774.089    -893.400
  H     -602.450     775.736    -896.930
  H     -608.655     773.321    -893.250
  H     -602.337     769.890    -895.300
  H     -605.934     770.347    -893.230
  H     -605.503     772.798    -893.180
  H     -602.397     774.262    -893.870
  H     -603.499     773.879    -896.510
  H     -605.636     774.594    -895.700
  H     -604.107     776.757    -894.150
  H     -606.138     776.594    -892.670
  H     -606.490     777.331    -894.220
  P     -605.875     775.819    -898.060
  C     -608.371     776.076    -897.420
  O     -607.259     776.586    -898.170
  O     -605.834     774.368    -898.420
  O     -604.983     776.644    -899.170
  H     -604.935     776.110    -900.000
  H     -609.261     776.662    -897.660
  H     -608.171     776.112    -896.350
  H     -608.587     775.040    -897.710
  H     -608.255     776.074    -889.654
  H     -609.720     776.198    -890.599
  H     -608.399     777.305    -890.885

 3  4  5  6  7  8  9  10  11  12  13  23  28  29  30  31  32 0
 6-311+G(2d,p)
 ****
 33  34 0
 6-311+G(2d,p)
 ****
 1  2  14  15  16  17  18  19  20  21  22  24  25  26  27 0
 3-21G
 ****
 35  36  37  38  39  40  41  42  43  44  45 0
 3-21G
 ****


