%nproc=1
%NoSave
%Mem=1900MB
#P OB98/GEN NMR

erre ene a

0 1
  C      -40.981     110.674    -116.141
  O      -39.644     111.117    -116.030
  P      -39.016     111.407    -114.586
  C      -39.788     112.772    -112.543
  O      -39.774     112.681    -113.969
  C      -39.541     114.215    -112.102
  O      -38.215     114.641    -112.494
  C      -40.493     115.225    -112.729
  O      -41.762     115.180    -112.100
  C      -39.726     116.525    -112.513
  O      -39.926     117.015    -111.176
  C      -38.268     116.070    -112.705
  N      -35.613     119.508    -115.388
  C      -36.111     119.536    -114.131
  N      -36.846     118.587    -113.502
  C      -37.068     117.544    -114.316
  C      -36.652     117.391    -115.630
  C      -35.865     118.428    -116.167
  N      -35.295     118.381    -117.423
  N      -37.103     116.185    -116.143
  C      -37.788     115.635    -115.155
  N      -37.739     116.387    -114.015
  O      -37.521     111.481    -114.542
  O      -39.547     110.195    -113.686
  H      -39.486     117.883    -111.112
  H      -38.788     109.686    -113.340
  H      -35.889     120.430    -113.555
  H      -38.320     114.694    -115.216
  H      -37.597     116.523    -111.964
  H      -40.035     117.320    -113.201
  H      -40.585     115.040    -113.809
  H      -39.601     114.252    -111.003
  H      -39.001     112.121    -112.150
  H      -34.633     119.110    -117.651
  H      -35.218     117.479    -117.887
  H      -40.754     112.420    -112.169
  P      -43.093     115.310    -112.985
  C      -44.015     116.950    -114.730
  O      -42.955     116.660    -113.838
  O      -44.381     115.145    -112.244
  O      -42.917     114.172    -114.100
  H      -43.794     113.819    -114.354
  H      -43.914     116.335    -115.630
  H      -43.960     118.006    -115.013
  H      -44.987     116.756    -114.264
  H      -41.226     110.533    -117.173
  H      -41.636     111.406    -115.716
  H      -41.094     109.747    -115.618

 3  4  5  6  7  8  9  10  11  12  22  25  29  30  31  32 0
 6-311+G(2d,p)
 ****
 33  36  37 0
 6-311+G(2d,p)
 ****
 1  2  13  14  15  16  17  18  19  20  21  23  24  26 0
 3-21G
 ****
 27  28  34  35  38  39  40  41  42  43  44  45  46  47  48 0
 3-21G
 ****


