%nproc=1
%NoSave
%Mem=1900MB
#P OB98/GEN NMR

erre ene a

0 1
  C      225.197     266.408     179.053
  O      224.422     267.389     179.713
  P      224.609     267.581     181.295
  C      222.192     266.688     181.838
  O      223.134     267.747     181.915
  C      220.794     267.246     181.550
  O      220.377     268.077     182.673
  C      220.694     268.094     180.280
  O      219.400     267.855     179.706
  C      220.780     269.517     180.814
  O      220.232     270.477     179.921
  C      220.017     269.366     182.134
  N      220.314     270.428     183.102
  C      219.663     271.653     182.953
  O      218.874     271.902     182.036
  N      219.977     272.613     183.883
  C      220.906     272.494     184.878
  O      221.159     273.391     185.671
  C      221.588     271.192     184.956
  C      221.266     270.239     184.093
  O      225.223     269.058     181.356
  O      225.442     266.523     181.938
  H      224.860     269.655     180.679
  H      219.270     270.318     179.858
  H      219.495     273.493     183.813
  H      222.349     271.068     185.730
  H      221.761     269.274     184.124
  H      218.936     269.343     181.944
  H      221.834     269.774     180.992
  H      221.475     267.857     179.547
  H      220.095     266.397     181.501
  H      222.178     266.150     182.793
  H      222.507     265.981     181.060
  P      219.303     266.829     178.459
  C      219.528     268.348     176.331
  O      218.682     267.645     177.223
  O      218.068     265.927     178.938
  O      220.540     266.034     178.196
  H      217.308     266.441     179.248
  H      218.971     268.537     175.405
  H      220.424     267.775     176.090
  H      219.810     269.306     176.772
  H      224.956     266.405     178.010
  H      224.985     265.446     179.470
  H      226.236     266.630     179.179

 3  4  5  6  7  8  9  10  11  12  13  24  28  29  30  31  32 0
 6-311+G(2d,p)
 ****
 33  34 0
 6-311+G(2d,p)
 ****
 1  2  14  15  16  17  18  19  20  21  22  23  25  26  27 0
 3-21G
 ****
 35  36  37  38  39  40  41  42  43  44  45 0
 3-21G
 ****


