%nproc=1
%NoSave
%Mem=1900MB
#P OB98/GEN NMR

erre ene a

0 1
  C     -482.052    -884.763      -4.234
  O     -482.804    -885.893      -3.762
  P     -482.427    -887.333      -4.347
  C     -484.760    -888.426      -4.006
  O     -483.365    -888.438      -3.635
  C     -485.510    -889.613      -3.382
  O     -484.816    -890.844      -3.734
  C     -485.538    -889.600      -1.841
  O     -486.619    -888.929      -1.190
  C     -485.711    -891.097      -1.540
  O     -487.121    -891.459      -1.636
  C     -484.923    -891.781      -2.636
  N     -482.127    -895.737      -0.944
  C     -483.439    -895.628      -1.298
  N     -484.089    -894.532      -1.740
  C     -483.276    -893.490      -1.822
  C     -481.926    -893.431      -1.518
  C     -481.343    -894.633      -1.050
  N     -480.013    -894.729      -0.696
  N     -481.416    -892.174      -1.721
  C     -482.457    -891.459      -2.121
  N     -483.600    -892.203      -2.218
  O     -480.988    -887.682      -4.397
  O     -483.055    -887.280      -5.839
  H     -487.168    -892.406      -1.385
  H     -482.455    -887.760      -6.445
  H     -484.029    -896.538      -1.212
  H     -482.405    -890.409      -2.364
  H     -485.434    -892.672      -3.032
  H     -485.397    -891.355      -0.517
  H     -484.588    -889.256      -1.419
  H     -486.513    -889.662      -3.777
  H     -484.845    -888.480      -5.104
  H     -479.690    -895.616      -0.337
  H     -479.431    -893.921      -0.724
  H     -485.173    -887.460      -3.704
  P     -486.469    -887.403      -0.680
  C     -488.080    -887.453       1.394
  O     -487.857    -887.078       0.062
  O     -486.071    -886.418      -1.720
  O     -485.436    -887.558       0.535
  H     -485.793    -888.022       1.307
  H     -488.956    -886.947       1.783
  H     -487.216    -887.160       2.014
  H     -488.218    -888.540       1.463
  H     -482.411    -883.873      -3.761
  H     -482.168    -884.675      -5.294
  H     -481.017    -884.900      -3.999

 3  4  5  6  7  8  9  10  11  12  22  25  29  30  31  32 0
 6-311+G(2d,p)
 ****
 33  36  37 0
 6-311+G(2d,p)
 ****
 1  2  13  14  15  16  17  18  19  20  21  23  24  26 0
 3-21G
 ****
 27  28  34  35  38  39  40  41  42  43  44  45  46  47  48 0
 3-21G
 ****


