%nproc=1
%NoSave
%Mem=1900MB
#P OB98/GEN NMR

erre ene a

0 1
  C      -73.787     -40.381     286.842
  O      -73.060     -40.247     288.046
  H      -74.537     -41.164     286.974
  H      -73.115     -40.669     286.029
  H      -74.291     -39.444     286.595
  P      -72.024     -39.018     288.130
  C      -70.062     -40.482     287.179
  O      -70.889     -39.339     287.041
  C      -68.600     -40.126     286.898
  O      -68.458     -39.827     285.486
  C      -68.099     -38.910     287.683
  O      -66.738     -39.139     288.051
  C      -68.182     -37.776     286.677
  O      -67.289     -36.709     287.002
  C      -67.887     -38.510     285.359
  N      -68.422     -37.801     284.196
  C      -67.890     -36.536     283.929
  O      -67.031     -36.054     284.669
  N      -68.374     -35.825     282.862
  C      -69.359     -36.307     282.160
  N      -69.806     -35.543     281.124
  C      -69.983     -37.616     282.435
  C      -69.466     -38.304     283.451
  O      -71.302     -39.297     289.531
  O      -72.659     -37.673     288.018
  H      -67.087     -36.223     286.171
  H      -71.097     -40.236     289.684
  H      -70.810     -37.966     281.831
  H      -69.863     -39.282     283.718
  H      -66.804     -38.628     285.220
  H      -69.200     -37.367     286.660
  H      -68.688     -38.698     288.575
  H      -67.983     -41.009     287.096
  H      -69.363     -34.643     280.978
  H      -70.384     -41.270     286.489
  H      -70.596     -35.794     280.546
  H      -70.169     -40.857     288.203
  P      -66.410     -39.784     289.482
  C      -65.814     -37.714     290.907
  O      -66.778     -38.719     290.628
  O      -65.061     -40.411     289.618
  O      -67.570     -40.882     289.651
  H      -67.172     -41.670     290.081
  H      -66.180     -37.075     291.683
  H      -65.635     -37.136     290.024
  H      -64.901     -38.174     291.224

 6  7  8  9  10  11  12  13  14  15  16  26  30  31  32  33  35 0
 6-311+G(2d,p)
 ****
 37  38 0
 6-311+G(2d,p)
 ****
 1  2  3  4  5  17  18  19  20  21  22  23  24  25 0
 3-21G
 ****
 27  28  29  34  36  39  40  41  42  43  44  45  46 0
 3-21G
 ****


