%nproc=1
%NoSave
%Mem=1900MB
#P OB98/GEN NMR

erre ene a

0 1
  C       39.836     -59.182    -371.622
  O       39.967     -57.812    -371.953
  H       40.502     -59.407    -370.788
  H       40.116     -59.808    -372.471
  H       38.808     -59.404    -371.320
  P       39.086     -57.236    -373.160
  C       38.764     -58.134    -375.560
  O       39.677     -57.907    -374.494
  C       39.439     -58.942    -376.662
  O       39.844     -60.233    -376.164
  C       38.546     -59.205    -377.874
  O       38.522     -58.071    -378.726
  C       39.255     -60.402    -378.485
  O       40.437     -59.961    -379.182
  C       39.647     -61.203    -377.228
  N       37.544     -65.729    -378.140
  C       38.508     -65.037    -378.852
  N       38.941     -65.618    -379.994
  N       38.986     -63.874    -378.490
  C       38.410     -63.385    -377.368
  C       37.432     -63.969    -376.586
  C       36.956     -65.281    -376.966
  O       36.113     -65.934    -376.352
  N       37.050     -63.141    -375.564
  C       37.817     -62.075    -375.702
  N       38.649     -62.168    -376.793
  O       38.965     -55.742    -373.239
  O       37.666     -57.948    -372.980
  H       40.129     -59.461    -379.963
  H       37.060     -57.401    -372.446
  H       37.206     -66.611    -378.482
  H       37.813     -61.216    -375.043
  H       40.588     -61.749    -377.362
  H       38.642     -60.947    -379.200
  H       38.414     -66.348    -380.452
  H       37.536     -59.513    -377.574
  H       39.611     -65.105    -380.555
  H       40.351     -58.410    -376.956
  H       38.447     -57.157    -375.938
  H       37.878     -58.673    -375.197
  P       37.382     -57.904    -379.849
  C       36.255     -59.572    -381.469
  O       37.382     -59.292    -380.649
  O       37.522     -56.694    -380.705
  O       36.009     -57.968    -379.040
  H       35.702     -57.086    -378.705
  H       36.385     -60.523    -381.941
  H       36.160     -58.813    -382.217
  H       35.371     -59.591    -380.866

 6  7  8  9  10  11  12  13  14  15  26  29  33  34 0
 6-311+G(2d,p)
 ****
 36  38  39  40  41 0
 6-311+G(2d,p)
 ****
 1  2  3  4  5  16  17  18  19  20  21  22  23  24  25 0
 3-21G
 ****
 27  28  30  31  32  35  37  42  43  44  45  46  47 0
 3-21G
 ****
 48  49 0
 3-21G
 ****


