%nproc=1
%NoSave
%Mem=1900MB
#P OB98/GEN NMR

erre ene a

0 1
  C       83.344    -117.631     214.958
  O       84.036    -116.491     215.427
  H       83.040    -118.234     215.819
  H       84.002    -118.233     214.326
  H       82.450    -117.347     214.399
  P       84.359    -115.305     214.399
  C       81.966    -114.515     213.846
  O       83.171    -114.235     214.545
  C       80.986    -113.345     213.966
  O       80.399    -113.366     215.304
  C       81.636    -111.958     213.775
  O       80.651    -111.102     213.178
  C       81.906    -111.561     215.215
  O       82.209    -110.196     215.333
  C       80.613    -112.055     215.869
  N       80.679    -112.107     217.324
  C       79.843    -111.248     218.033
  O       79.047    -110.475     217.503
  N       79.959    -111.299     219.397
  C       80.813    -112.098     220.100
  O       80.860    -112.117     221.325
  C       81.691    -112.961     219.295
  C       81.585    -112.928     217.965
  O       84.662    -115.724     213.000
  O       85.601    -114.551     215.071
  H       86.432    -114.860     214.661
  H       81.473    -109.649     214.986
  H       79.361    -110.683     219.926
  H       82.394    -113.592     219.823
  H       82.217    -113.549     217.338
  H       79.764    -111.433     215.569
  H       82.770    -112.108     215.602
  H       82.527    -111.989     213.141
  H       80.163    -113.494     213.257
  H       81.520    -115.416     214.278
  H       82.196    -114.701     212.790
  P       80.518    -110.883     211.595
  C       79.313    -112.801     210.362
  O       79.168    -111.581     211.073
  O       81.732    -111.297     210.828
  O       80.239    -109.318     211.402
  H       80.681    -109.010     210.586
  H       78.348    -113.161     210.071
  H       79.790    -113.525     210.989
  H       79.910    -112.637     209.490

 6  7  8  9  10  11  12  13  14  15  16  27  31  32  33  34  35 0
 6-311+G(2d,p)
 ****
 36  37 0
 6-311+G(2d,p)
 ****
 1  2  3  4  5  17  18  19  20  21  22  23  24  25 0
 3-21G
 ****
 26  28  29  30  38  39  40  41  42  43  44  45 0
 3-21G
 ****


