%nproc=1
%NoSave
%Mem=1900MB
#P OB98/GEN NMR

erre ene a

0 1
  C      223.096    -794.374     -65.298
  O      222.444    -793.165     -64.982
  H      223.865    -794.560     -64.544
  H      223.578    -794.289     -66.278
  H      222.397    -795.214     -65.306
  P      221.015    -792.865     -65.642
  C      219.696    -792.938     -63.422
  O      219.893    -793.528     -64.699
  C      218.227    -792.578     -63.178
  O      217.392    -793.747     -63.331
  C      217.976    -792.062     -61.761
  O      218.234    -790.689     -61.558
  C      216.496    -792.380     -61.569
  O      215.674    -791.320     -62.101
  C      216.314    -793.660     -62.388
  N      213.471    -796.896     -59.615
  C      213.095    -795.729     -60.253
  N      211.810    -795.340     -60.069
  N      213.907    -794.997     -60.972
  C      215.186    -795.452     -60.987
  C      215.683    -796.600     -60.387
  C      214.761    -797.423     -59.638
  O      215.045    -798.470     -59.055
  N      217.034    -796.739     -60.624
  C      217.358    -795.649     -61.294
  N      216.267    -794.856     -61.567
  O      220.986    -793.818     -66.934
  O      220.767    -791.439     -66.024
  H      216.069    -790.468     -61.853
  H      220.397    -793.440     -67.611
  H      212.801    -797.437     -59.112
  H      218.363    -795.403     -61.626
  H      215.380    -793.631     -62.967
  H      216.234    -792.484     -60.509
  H      211.187    -795.800     -59.433
  H      218.550    -792.660     -61.038
  H      211.569    -794.368     -60.291
  H      217.905    -791.852     -63.934
  H      220.308    -792.036     -63.396
  H      220.063    -793.603     -62.632
  P      218.502    -790.134     -60.077
  C      221.025    -790.605     -60.546
  O      219.946    -790.666     -59.632
  O      217.487    -790.981     -59.191
  O      218.287    -788.663     -59.911
  H      216.663    -790.482     -59.032
  H      221.906    -790.999     -60.085
  H      221.196    -789.587     -60.829
  H      220.789    -791.182     -61.416

 6  7  8  9  10  11  12  13  14  15  26  29  33  34 0
 6-311+G(2d,p)
 ****
 36  38  39  40  41 0
 6-311+G(2d,p)
 ****
 1  2  3  4  5  16  17  18  19  20  21  22  23  24  25 0
 3-21G
 ****
 27  28  30  31  32  35  37  42  43  44  45  46  47 0
 3-21G
 ****
 48  49 0
 3-21G
 ****


