%nproc=1
%NoSave
%Mem=1900MB
#P OB98/GEN NMR

erre ene a

0 1
  C      647.566     606.782    -604.690
  O      646.570     607.395    -605.516
  P      645.356     608.261    -604.899
  C      645.698     610.179    -606.587
  O      645.614     609.805    -605.210
  C      644.966     611.496    -606.863
  O      643.541     611.303    -606.802
  C      645.290     612.619    -605.879
  O      646.531     613.214    -606.194
  C      644.074     613.528    -606.069
  O      644.238     614.355    -607.231
  C      642.936     612.523    -606.281
  N      638.831     613.782    -603.507
  C      639.297     614.226    -604.695
  N      640.407     613.845    -605.368
  C      641.042     612.879    -604.700
  C      640.700     612.326    -603.470
  C      639.539     612.820    -602.865
  N      639.077     612.375    -601.639
  N      641.623     611.374    -603.096
  C      642.507     611.340    -604.087
  N      642.197     612.227    -605.080
  O      645.072     607.956    -603.460
  O      644.094     607.914    -605.823
  H      644.241     613.775    -608.011
  H      643.269     607.996    -605.305
  H      638.685     615.001    -605.179
  H      643.368     610.681    -604.110
  H      642.231     612.860    -607.031
  H      643.914     614.203    -605.216
  H      645.301     612.234    -604.862
  H      645.199     611.793    -607.889
  H      645.244     609.379    -607.178
  H      638.248     612.793    -601.266
  H      639.613     611.691    -601.136
  H      646.747     610.273    -606.853
  P      647.875     612.679    -605.493
  C      649.109     612.335    -607.711
  O      648.616     611.720    -606.535
  O      647.698     612.116    -604.118
  O      648.816     613.975    -605.474
  H      649.427     613.914    -604.701
  H      648.293     612.477    -608.428
  H      649.865     611.673    -608.161
  H      649.566     613.302    -607.482
  H      648.269     606.261    -605.306
  H      647.098     606.091    -604.021
  H      648.075     607.536    -604.126

 3  4  5  6  7  8  9  10  11  12  22  25  29  30  31  32 0
 6-311+G(2d,p)
 ****
 33  36  37 0
 6-311+G(2d,p)
 ****
 1  2  13  14  15  16  17  18  19  20  21  23  24  26 0
 3-21G
 ****
 27  28  34  35  38  39  40  41  42  43  44  45  46  47  48 0
 3-21G
 ****


