%nproc=1
%NoSave
%Mem=1900MB
#P OB98/GEN NMR

erre ene a

0 1
  C     -887.409    1021.064     175.556
  O     -887.677    1022.338     174.997
  H     -886.562    1020.620     175.027
  H     -888.282    1020.423     175.423
  H     -887.165    1021.146     176.618
  P     -888.604    1023.329     175.849
  C     -890.802    1022.868     174.534
  O     -890.102    1022.747     175.767
  C     -892.263    1022.467     174.708
  O     -892.910    1023.438     175.560
  C     -893.050    1022.399     173.389
  O     -893.990    1021.313     173.469
  C     -893.830    1023.711     173.402
  O     -895.000    1023.646     172.589
  C     -894.120    1023.845     174.896
  N     -898.020    1027.016     174.828
  C     -897.970    1025.647     174.606
  N     -899.120    1025.042     174.248
  N     -896.870    1024.944     174.720
  C     -895.790    1025.670     175.097
  C     -895.720    1027.018     175.345
  C     -896.930    1027.796     175.209
  O     -897.030    1029.007     175.369
  N     -894.420    1027.385     175.651
  C     -893.730    1026.269     175.564
  N     -894.510    1025.197     175.233
  O     -888.661    1024.637     174.917
  O     -888.112    1023.644     177.222
  H     -895.530    1022.881     172.866
  H     -887.975    1025.275     175.206
  H     -898.890    1027.509     174.719
  H     -892.660    1026.194     175.713
  H     -894.930    1023.187     175.234
  H     -893.210    1024.528     173.050
  H     -900.000    1025.511     174.178
  H     -892.435    1022.290     172.498
  H     -899.100    1024.032     174.118
  H     -892.302    1021.500     175.236
  H     -890.329    1022.221     173.784
  H     -890.725    1023.914     174.183
  P     -893.570    1019.921     172.806
  C     -895.230    1019.799     170.805
  O     -893.880    1019.964     171.234
  O     -894.670    1018.906     173.372
  O     -892.187    1019.469     173.168
  H     -894.270    1018.023     173.512
  H     -895.274    1019.851     169.737
  H     -895.835    1020.575     171.225
  H     -895.594    1018.847     171.131

 6  7  8  9  10  11  12  13  14  15  26  29  33  34 0
 6-311+G(2d,p)
 ****
 36  38  39  40  41 0
 6-311+G(2d,p)
 ****
 1  2  3  4  5  16  17  18  19  20  21  22  23  24  25 0
 3-21G
 ****
 27  28  30  31  32  35  37  42  43  44  45  46  47 0
 3-21G
 ****
 48  49 0
 3-21G
 ****


