%nproc=1
%NoSave
%Mem=1900MB
#P OB98/GEN NMR

erre ene a

0 1
  C     -827.882    -627.650    -891.760
  O     -826.486    -627.681    -891.970
  P     -825.641    -626.316    -892.070
  C     -825.489    -624.338    -893.690
  O     -826.299    -625.402    -893.200
  C     -825.278    -624.477    -895.190
  O     -826.535    -624.427    -895.910
  C     -824.433    -623.372    -895.800
  O     -823.057    -623.505    -895.490
  C     -824.713    -623.555    -897.280
  O     -823.941    -624.630    -897.840
  C     -826.215    -623.951    -897.260
  N     -827.106    -622.877    -897.620
  C     -827.049    -622.425    -898.950
  O     -826.210    -622.917    -899.720
  N     -827.923    -621.446    -899.340
  C     -828.725    -620.864    -898.510
  N     -829.594    -619.981    -899.000
  C     -828.695    -621.203    -897.080
  C     -827.899    -622.187    -896.700
  O     -824.168    -626.488    -892.170
  O     -826.059    -625.548    -890.700
  H     -825.216    -625.226    -890.280
  H     -822.993    -624.447    -897.610
  H     -829.316    -620.632    -896.410
  H     -827.853    -622.525    -895.670
  H     -826.406    -624.835    -897.940
  H     -824.528    -622.671    -897.860
  H     -824.824    -622.401    -895.490
  H     -824.792    -625.477    -895.400
  H     -829.573    -619.795    -900.000
  H     -824.545    -624.369    -893.180
  H     -830.427    -619.683    -898.490
  H     -825.989    -623.372    -893.470
  P     -822.106    -622.232    -895.870
  C     -821.805    -620.842    -898.060
  O     -822.183    -622.081    -897.480
  O     -820.623    -622.811    -895.650
  O     -822.333    -620.992    -895.090
  H     -820.057    -622.115    -895.300
  H     -821.626    -620.999    -899.120
  H     -820.915    -620.458    -897.570
  H     -822.648    -620.105    -897.950
  H     -828.259    -628.651    -891.723
  H     -828.352    -627.121    -892.563
  H     -828.093    -627.155    -890.835

 3  4  5  6  7  8  9  10  11  12  13  24  27  28  29  30  32 0
 6-311+G(2d,p)
 ****
 34  35 0
 6-311+G(2d,p)
 ****
 1  2  14  15  16  17  18  19  20  21  22  23  25  26 0
 3-21G
 ****
 31  33  36  37  38  39  40  41  42  43  44  45  46 0
 3-21G
 ****


