%nproc=1
%NoSave
%Mem=1900MB
#P OB98/GEN NMR

erre ene a

0 1
  C        4.646     120.824    -608.216
  O        5.293     119.843    -607.427
  H        5.384     121.409    -608.773
  H        3.985     120.320    -608.932
  H        4.040     121.483    -607.584
  P        6.286     120.383    -606.292
  C        8.037     119.158    -607.769
  O        7.652     119.555    -606.458
  C        9.485     118.670    -607.764
  O       10.362     119.732    -607.342
  C        9.763     117.506    -606.821
  O        9.361     116.264    -607.375
  C       11.278     117.601    -606.698
  O       11.894     117.013    -607.857
  C       11.508     119.118    -606.685
  N       14.648     119.762    -602.693
  C       14.841     119.223    -603.925
  N       13.962     119.108    -604.937
  C       12.773     119.636    -604.598
  C       12.428     120.234    -603.396
  C       13.429     120.283    -602.409
  N       13.197     120.775    -601.134
  N       11.114     120.645    -603.418
  C       10.665     120.279    -604.599
  N       11.634     119.675    -605.352
  O        5.642     119.795    -604.942
  O        6.433     121.867    -606.229
  H       12.859     117.163    -607.770
  H        5.089     120.478    -604.525
  H       15.841     118.830    -604.109
  H        9.653     120.430    -604.953
  H       12.399     119.406    -607.255
  H       11.670     117.075    -605.817
  H        9.317     117.670    -605.831
  H        9.753     118.408    -608.799
  H        7.940     120.010    -608.448
  H       13.782     120.351    -600.421
  H       12.217     120.898    -600.905
  H        7.366     118.357    -608.103
  P        9.163     115.023    -606.378
  C       10.693     113.596    -607.899
  O        9.439     113.697    -607.234
  O        7.590     115.007    -606.135
  O        9.913     115.127    -605.079
  H        7.390     115.061    -605.180
  H       10.742     112.667    -608.428
  H       11.483     113.638    -607.179
  H       10.797     114.406    -608.590

 6  7  8  9  10  11  12  13  14  15  25  28  32  33  34  35 0
 6-311+G(2d,p)
 ****
 36  39  40 0
 6-311+G(2d,p)
 ****
 1  2  3  4  5  16  17  18  19  20  21  22  23  24 0
 3-21G
 ****
 26  27  29  30  31  37  38  41  42  43  44  45  46  47  48 0
 3-21G
 ****


