%nproc=1
%NoSave
%Mem=1900MB
#P OB98/GEN NMR

erre ene a

0 1
  C      136.738      51.063     -40.242
  O      136.267      50.891     -41.564
  H      137.817      51.252     -40.277
  H      136.564      50.161     -39.649
  H      136.248      51.919     -39.771
  P      134.724      50.520     -41.783
  C      132.487      51.632     -41.102
  O      133.883      51.512     -40.844
  C      131.688      51.497     -39.806
  O      131.897      50.197     -39.222
  C      132.075      52.504     -38.727
  O      131.559      53.784     -39.031
  C      131.485      51.834     -37.499
  O      130.066      52.046     -37.425
  C      131.801      50.345     -37.785
  N      133.017      49.869     -37.133
  C      132.884      49.480     -35.794
  O      131.794      49.562     -35.228
  N      134.001      49.025     -35.133
  C      135.134      48.925     -35.756
  N      136.196      48.463     -35.046
  C      135.304      49.292     -37.176
  C      134.222      49.760     -37.793
  O      134.366      49.073     -41.632
  O      134.402      51.058     -43.255
  H      129.681      51.569     -38.186
  H      134.515      50.346     -43.912
  H      136.266      49.183     -37.660
  H      134.263      50.053     -38.838
  H      130.968      49.708     -37.457
  H      131.914      52.218     -36.572
  H      133.164      52.535     -38.614
  H      130.622      51.581     -40.056
  H      136.023      48.206     -34.078
  H      132.218      50.827     -41.795
  H      137.075      48.193     -35.466
  H      132.265      52.590     -41.583
  P      132.121      55.108     -38.322
  C      134.451      56.164     -38.055
  O      133.723      54.996     -38.400
  O      131.575      55.379     -36.962
  O      131.802      56.266     -39.379
  H      130.844      56.513     -39.343
  H      135.500      55.970     -38.144
  H      134.224      56.441     -37.047
  H      134.179      56.962     -38.714

 6  7  8  9  10  11  12  13  14  15  16  26  30  31  32  33  35 0
 6-311+G(2d,p)
 ****
 37  38 0
 6-311+G(2d,p)
 ****
 1  2  3  4  5  17  18  19  20  21  22  23  24  25 0
 3-21G
 ****
 27  28  29  34  36  39  40  41  42  43  44  45  46 0
 3-21G
 ****


