%nproc=1
%NoSave
%Mem=1900MB
#P OB98/GEN NMR

erre ene a

0 1
  C      271.598     514.695     389.674
  O      270.393     515.259     389.200
  H      272.418     515.027     389.037
  H      271.535     513.603     389.621
  H      271.796     515.008     390.704
  P      269.131     515.237     390.190
  C      267.310     513.762     389.072
  O      268.402     513.817     389.977
  C      266.409     512.563     389.399
  O      267.166     511.340     389.179
  C      265.893     512.550     390.849
  O      264.558     512.031     390.862
  C      266.801     511.516     391.513
  O      266.211     510.945     392.674
  C      266.999     510.528     390.363
  N      268.372     505.720     390.740
  C      267.191     506.285     390.306
  N      266.192     505.435     389.962
  N      267.005     507.577     390.202
  C      268.087     508.306     390.555
  C      269.306     507.873     391.013
  C      269.500     506.440     391.128
  O      270.521     505.883     391.536
  N      270.123     508.930     391.319
  C      269.392     510.001     391.074
  N      268.142     509.671     390.607
  O      268.129     516.279     389.505
  O      269.423     515.594     391.613
  H      265.857     511.673     393.230
  H      268.243     517.162     389.911
  H      268.460     504.717     390.811
  H      269.700     511.023     391.235
  H      266.130     509.880     390.212
  H      267.753     511.989     391.802
  H      266.271     504.433     389.979
  H      265.920     513.519     391.346
  H      265.344     505.841     389.600
  H      265.570     512.560     388.689
  H      267.691     513.651     388.049
  H      266.742     514.694     389.128
  P      263.363     513.033     390.490
  C      263.137     513.787     392.972
  O      263.282     514.174     391.614
  O      262.050     512.154     390.766
  O      263.401     513.521     389.078
  H      261.355     512.385     390.122
  H      263.099     514.660     393.590
  H      263.970     513.181     393.261
  H      262.232     513.228     393.089

 6  7  8  9  10  11  12  13  14  15  26  29  33  34 0
 6-311+G(2d,p)
 ****
 36  38  39  40  41 0
 6-311+G(2d,p)
 ****
 1  2  3  4  5  16  17  18  19  20  21  22  23  24  25 0
 3-21G
 ****
 27  28  30  31  32  35  37  42  43  44  45  46  47 0
 3-21G
 ****
 48  49 0
 3-21G
 ****


