%nproc=1
%NoSave
%Mem=1900MB
#P OB98/GEN NMR

erre ene a

0 1
  C     -472.779     -47.608    -780.671
  O     -473.361     -46.813    -779.630
  P     -473.833     -47.562    -778.289
  C     -476.275     -46.739    -777.893
  O     -474.903     -46.635    -777.530
  C     -477.173     -46.372    -776.705
  O     -476.950     -47.250    -775.569
  C     -476.937     -44.966    -776.166
  O     -477.638     -44.003    -776.949
  C     -477.551     -45.076    -774.790
  O     -478.984     -44.957    -774.874
  C     -477.162     -46.493    -774.360
  N     -475.025     -45.100    -769.912
  C     -476.250     -44.877    -770.450
  N     -476.733     -45.254    -771.644
  C     -475.830     -45.983    -772.311
  C     -474.541     -46.310    -771.898
  C     -474.148     -45.837    -770.641
  N     -472.899     -46.105    -770.100
  N     -473.897     -47.051    -772.862
  C     -474.781     -47.193    -773.832
  N     -475.956     -46.549    -773.550
  O     -472.531     -47.468    -777.349
  O     -474.254     -48.979    -778.494
  H     -479.184     -44.104    -775.297
  H     -472.468     -48.269    -776.797
  H     -476.933     -44.282    -769.828
  H     -474.617     -47.740    -774.746
  H     -477.954     -46.986    -773.799
  H     -477.214     -44.290    -774.110
  H     -475.872     -44.744    -776.101
  H     -478.223     -46.493    -777.032
  H     -476.492     -47.761    -778.231
  H     -472.706     -45.737    -769.172
  H     -472.246     -46.656    -770.627
  H     -476.464     -46.084    -778.746
  P     -476.849     -42.652    -777.319
  C     -478.754     -40.973    -776.739
  O     -477.978     -41.598    -777.741
  O     -476.115     -43.020    -778.696
  O     -475.880     -42.190    -776.275
  H     -475.287     -42.514    -778.772
  H     -479.237     -40.090    -777.164
  H     -478.134     -40.662    -775.893
  H     -479.523     -41.664    -776.386
  H     -472.515     -46.979    -781.495
  H     -473.485     -48.343    -780.995
  H     -471.902     -48.095    -780.300

 3  4  5  6  7  8  9  10  11  12  22  25  29  30  31  32 0
 6-311+G(2d,p)
 ****
 33  36  37 0
 6-311+G(2d,p)
 ****
 1  2  13  14  15  16  17  18  19  20  21  23  24  26 0
 3-21G
 ****
 27  28  34  35  38  39  40  41  42  43  44  45  46  47  48 0
 3-21G
 ****


