%nproc=1
%NoSave
%Mem=1900MB
#P OB98/GEN NMR

erre ene a

0 1
  C       65.561      45.081      26.601
  O       66.667      45.656      25.934
  H       64.692      45.127      25.938
  H       65.340      45.645      27.510
  H       65.765      44.036      26.847
  P       68.095      45.524      26.662
  C       68.234      47.997      27.529
  O       68.080      46.621      27.831
  C       68.682      48.770      28.769
  O       68.935      50.146      28.393
  C       67.653      48.776      29.899
  O       68.346      48.704      31.146
  C       66.978      50.129      29.758
  O       66.390      50.561      30.984
  C       68.131      50.996      29.237
  N       67.658      52.173      28.511
  C       67.090      53.197      29.275
  O       66.988      53.075      30.496
  N       66.612      54.314      28.638
  C       66.634      54.373      27.342
  N       66.125      55.497      26.769
  C       67.174      53.294      26.493
  C       67.673      52.240      27.136
  O       69.077      46.147      25.563
  O       68.439      44.137      27.087
  H       65.696      49.910      31.234
  H       68.722      46.940      25.129
  H       67.156      53.384      25.417
  H       68.098      51.405      26.591
  H       68.764      51.335      30.067
  H       66.179      50.071      29.007
  H       66.932      47.961      29.834
  H       69.640      48.357      29.107
  H       65.747      56.206      27.385
  H       67.291      48.413      27.162
  H       66.044      55.629      25.772
  H       68.981      48.088      26.734
  P       68.296      47.345      31.992
  C       66.864      48.197      33.960
  O       66.940      47.315      32.851
  O       69.534      47.009      32.754
  O       68.009      46.235      30.866
  H       68.529      45.438      31.090
  H       65.917      48.080      34.445
  H       66.969      49.206      33.621
  H       67.649      47.970      34.651

 6  7  8  9  10  11  12  13  14  15  16  26  30  31  32  33  35 0
 6-311+G(2d,p)
 ****
 37  38 0
 6-311+G(2d,p)
 ****
 1  2  3  4  5  17  18  19  20  21  22  23  24  25 0
 3-21G
 ****
 27  28  29  34  36  39  40  41  42  43  44  45  46 0
 3-21G
 ****


