%nproc=1
%NoSave
%Mem=1900MB
#P OB98/GEN NMR

erre ene a

0 1
  C      -89.416    -598.770     -35.470
  O      -90.643    -599.472     -35.382
  P      -91.962    -598.749     -34.815
  C      -93.661    -600.307     -35.966
  O      -93.085    -599.900     -34.742
  C      -94.641    -601.453     -35.735
  O      -93.958    -602.663     -35.300
  C      -95.662    -601.196     -34.629
  O      -96.605    -600.171     -34.850
  C      -96.196    -602.589     -34.381
  O      -97.197    -602.953     -35.345
  C      -94.917    -603.466     -34.568
  N      -94.370    -603.915     -33.279
  C      -95.219    -604.745     -32.541
  O      -96.348    -605.094     -32.908
  N      -94.735    -605.153     -31.313
  C      -93.535    -604.797     -30.783
  O      -93.184    -605.161     -29.667
  C      -92.697    -603.900     -31.606
  C      -93.151    -603.515     -32.815
  O      -92.377    -597.530     -35.548
  O      -91.612    -598.511     -33.265
  H      -97.605    -603.774     -35.036
  H      -91.421    -599.326     -32.761
  H      -95.340    -605.744     -30.768
  H      -91.741    -603.612     -31.202
  H      -92.559    -602.871     -33.428
  H      -95.137    -604.345     -35.197
  H      -96.659    -602.687     -33.388
  H      -95.098    -600.899     -33.730
  H      -95.132    -601.697     -36.690
  H      -92.852    -600.664     -36.631
  H      -94.152    -599.465     -36.454
  P      -96.885    -598.998     -33.800
  C      -97.802    -597.239     -35.460
  O      -98.075    -598.082     -34.360
  O      -95.681    -598.286     -33.227
  O      -97.628    -599.795     -32.603
  H      -97.430    -599.372     -31.744
  H      -98.708    -596.652     -35.698
  H      -97.555    -597.831     -36.351
  H      -96.999    -596.544     -35.235
  H      -88.663    -599.417     -35.869
  H      -89.123    -598.440     -34.495
  H      -89.535    -597.923     -36.113

 3  4  5  6  7  8  9  10  11  12  13  23  28  29  30  31  32 0
 6-311+G(2d,p)
 ****
 33  34 0
 6-311+G(2d,p)
 ****
 1  2  14  15  16  17  18  19  20  21  22  24  25  26  27 0
 3-21G
 ****
 35  36  37  38  39  40  41  42  43  44  45 0
 3-21G
 ****


