%nproc=1
%NoSave
%Mem=1900MB
#P OB98/GEN NMR

erre ene a

0 1
  C      -53.431     -29.597     -44.876
  O      -52.373     -29.533     -45.836
  P      -50.886     -29.850     -45.320
  C      -49.697     -27.523     -45.254
  O      -50.399     -28.530     -44.546
  C      -48.578     -26.930     -44.391
  O      -49.156     -26.118     -43.324
  C      -47.661     -27.972     -43.739
  O      -46.336     -27.423     -43.749
  C      -48.188     -28.050     -42.319
  O      -47.216     -28.558     -41.417
  C      -48.588     -26.590     -42.085
  N      -49.520     -26.429     -40.972
  C      -48.984     -26.465     -39.691
  O      -47.798     -26.700     -39.470
  N      -49.869     -26.268     -38.666
  C      -51.221     -26.121     -38.794
  O      -51.969     -25.946     -37.840
  C      -51.744     -26.205     -40.166
  C      -50.882     -26.355     -41.174
  O      -50.066     -29.835     -46.689
  O      -50.799     -31.119     -44.539
  H      -50.377     -29.165     -47.321
  H      -46.953     -29.456     -41.702
  H      -49.496     -26.257     -37.730
  H      -52.816     -26.152     -40.302
  H      -51.236     -26.444     -42.192
  H      -47.700     -25.978     -41.881
  H      -49.068     -28.702     -42.283
  H      -47.669     -28.932     -44.262
  H      -47.985     -26.257     -45.023
  H      -50.385     -26.721     -45.538
  H      -49.300     -27.946     -46.182
  P      -45.379     -27.766     -44.998
  C      -43.498     -28.732     -43.457
  O      -44.392     -28.935     -44.527
  O      -44.432     -26.471     -44.988
  O      -46.083     -27.957     -46.300
  H      -44.097     -26.252     -44.104
  H      -43.097     -29.700     -43.146
  H      -44.001     -28.275     -42.602
  H      -42.669     -28.097     -43.781
  H      -54.360     -29.365     -45.353
  H      -53.246     -28.891     -44.094
  H      -53.479     -30.583     -44.463

 3  4  5  6  7  8  9  10  11  12  13  24  28  29  30  31  32 0
 6-311+G(2d,p)
 ****
 33  34 0
 6-311+G(2d,p)
 ****
 1  2  14  15  16  17  18  19  20  21  22  23  25  26  27 0
 3-21G
 ****
 35  36  37  38  39  40  41  42  43  44  45 0
 3-21G
 ****


