%nproc=1
%NoSave
%Mem=1900MB
#P OB98/GEN NMR

erre ene a

0 1
  C     -220.685     328.800      70.715
  O     -219.454     328.113      70.780
  H     -220.630     329.546      69.920
  H     -220.874     329.309      71.666
  H     -221.510     328.117      70.497
  P     -219.378     326.741      71.603
  C     -218.275     327.695      73.732
  O     -219.439     327.118      73.161
  C     -218.475     327.988      75.224
  O     -219.753     328.641      75.423
  C     -218.519     326.684      76.025
  O     -218.056     326.858      77.365
  C     -220.002     326.345      76.047
  O     -220.361     325.476      77.114
  C     -220.614     327.746      76.150
  N     -225.440     326.128      76.482
  C     -224.320     325.684      77.158
  N     -224.505     324.659      78.017
  N     -223.122     326.185      76.988
  C     -223.073     327.157      76.041
  C     -224.109     327.669      75.290
  C     -225.437     327.124      75.512
  O     -226.461     327.473      74.930
  N     -223.670     328.630      74.417
  C     -222.370     328.700      74.633
  N     -221.957     327.835      75.625
  O     -217.855     326.271      71.421
  O     -220.337     325.672      71.174
  H     -221.321     325.314      77.053
  H     -217.782     325.305      71.528
  H     -226.339     325.718      76.659
  H     -221.682     329.356      74.112
  H     -220.646     328.079      77.193
  H     -220.253     325.840      75.111
  H     -225.360     324.125      78.048
  H     -217.932     325.890      75.547
  H     -223.668     324.129      78.292
  H     -217.703     328.680      75.583
  H     -218.076     328.628      73.192
  H     -217.412     327.041      73.580
  P     -216.769     326.020      77.818
  C     -218.094     324.422      79.422
  O     -217.265     324.565      78.284
  O     -216.312     326.737      79.176
  O     -215.673     326.000      76.801
  H     -215.519     327.280      79.019
  H     -218.318     323.387      79.573
  H     -219.004     324.965      79.271
  H     -217.588     324.806      80.283

 6  7  8  9  10  11  12  13  14  15  26  29  33  34 0
 6-311+G(2d,p)
 ****
 36  38  39  40  41 0
 6-311+G(2d,p)
 ****
 1  2  3  4  5  16  17  18  19  20  21  22  23  24  25 0
 3-21G
 ****
 27  28  30  31  32  35  37  42  43  44  45  46  47 0
 3-21G
 ****
 48  49 0
 3-21G
 ****


