%nproc=1
%NoSave
%Mem=1900MB
#P OB98/GEN NMR

erre ene a

0 1
  C       51.906     130.472     366.131
  O       52.201     131.618     365.350
  H       52.011     130.732     367.187
  H       52.610     129.668     365.894
  H       50.882     130.140     365.946
  P       51.884     131.516     363.784
  C       51.247     134.067     363.763
  O       51.991     133.000     363.174
  C       51.523     135.377     363.020
  O       52.870     135.826     363.268
  C       51.447     135.261     361.502
  O       50.121     135.117     361.032
  C       52.109     136.567     361.092
  O       51.181     137.654     361.092
  C       53.183     136.756     362.198
  N       54.531     136.578     361.681
  C       55.025     137.641     360.905
  O       54.331     138.639     360.732
  N       56.260     137.514     360.338
  C       56.939     136.420     360.501
  N       58.150     136.348     359.871
  C       56.459     135.279     361.304
  C       55.251     135.422     361.861
  O       50.307     131.228     363.770
  O       52.699     130.505     363.046
  H       50.624     137.544     361.891
  H       49.791     131.834     364.329
  H       57.073     134.386     361.417
  H       54.829     134.628     362.470
  H       53.114     137.758     362.628
  H       52.525     136.503     360.081
  H       52.078     134.423     361.165
  H       50.823     136.140     363.400
  H       58.415     137.135     359.293
  H       51.500     134.170     364.831
  H       58.728     135.524     359.863
  H       50.187     133.804     363.707
  P       49.742     134.059     359.908
  C       47.801     132.864     361.137
  O       48.167     133.741     360.068
  O       50.602     132.831     359.870
  O       49.773     134.911     358.558
  H       49.156     135.662     358.542
  H       46.739     132.730     361.141
  H       48.111     133.289     362.069
  H       48.279     131.917     361.001

 6  7  8  9  10  11  12  13  14  15  16  26  30  31  32  33  35 0
 6-311+G(2d,p)
 ****
 37  38 0
 6-311+G(2d,p)
 ****
 1  2  3  4  5  17  18  19  20  21  22  23  24  25 0
 3-21G
 ****
 27  28  29  34  36  39  40  41  42  43  44  45  46 0
 3-21G
 ****


