%nproc=1
%NoSave
%Mem=1900MB
#P OB98/GEN NMR

erre ene a

0 1
  C     1594.917    -892.340     542.923
  O     1595.584    -892.810     544.092
  P     1596.281    -891.810     545.092
  C     1596.251    -893.540     547.077
  O     1597.000    -892.650     546.262
  C     1597.238    -894.470     547.780
  O     1598.370    -893.690     548.329
  C     1596.589    -895.150     548.983
  O     1596.098    -896.460     548.605
  C     1597.724    -895.220     550.019
  O     1598.580    -896.320     549.739
  C     1598.416    -893.860     549.752
  N     1597.870    -892.660     550.392
  C     1598.445    -891.420     550.122
  O     1599.356    -891.220     549.342
  N     1597.884    -890.370     550.816
  C     1596.826    -890.430     551.689
  O     1596.508    -889.540     552.475
  C     1596.122    -891.710     551.707
  C     1596.664    -892.760     551.094
  O     1595.055    -891.100     545.873
  O     1597.198    -890.790     544.459
  H     1598.989    -896.160     548.893
  H     1594.856    -890.240     545.470
  H     1598.380    -889.470     550.734
  H     1595.192    -891.790     552.280
  H     1596.186    -893.720     551.129
  H     1599.500    -893.940     550.049
  H     1597.323    -895.400     551.024
  H     1595.761    -894.550     549.386
  H     1597.625    -895.190     547.100
  H     1595.561    -894.110     546.487
  H     1595.667    -892.970     547.812
  P     1594.574    -896.790     548.696
  C     1595.070    -898.950     547.390
  O     1594.459    -898.370     548.545
  O     1593.666    -895.990     547.793
  O     1594.213    -896.520     550.240
  H     1593.846    -895.640     550.374
  H     1595.103    -900.000     547.468
  H     1596.117    -898.550     547.270
  H     1594.492    -898.680     546.511
  H     1594.515    -893.172     542.383
  H     1595.613    -891.815     542.302
  H     1594.123    -891.681     543.206

 3  4  5  6  7  8  9  10  11  12  13  23  28  29  30  31  32 0
 6-311+G(2d,p)
 ****
 33  34 0
 6-311+G(2d,p)
 ****
 1  2  14  15  16  17  18  19  20  21  22  24  25  26  27 0
 3-21G
 ****
 35  36  37  38  39  40  41  42  43  44  45 0
 3-21G
 ****


