%nproc=1
%NoSave
%Mem=1900MB
#P OB98/GEN NMR

erre ene a

0 1
  C     -137.244      49.229       2.595
  O     -135.877      48.885       2.501
  H     -137.370      50.263       2.264
  H     -137.576      49.150       3.633
  H     -137.848      48.578       1.960
  P     -135.484      47.371       2.857
  C     -134.414      46.665       0.604
  O     -134.197      47.014       1.963
  C     -133.157      46.919      -0.226
  O     -133.134      48.321      -0.629
  C     -131.842      46.633       0.515
  O     -130.901      46.118      -0.436
  C     -131.380      48.020       0.933
  O     -129.980      48.075       1.195
  C     -131.833      48.831      -0.279
  N     -128.974      52.935       0.258
  C     -128.631      51.642      -0.083
  N     -127.323      51.400      -0.317
  N     -129.495      50.668      -0.185
  C     -130.772      51.058       0.044
  C     -131.241      52.302       0.393
  C     -130.269      53.367       0.529
  O     -130.510      54.527       0.847
  N     -132.603      52.285       0.566
  C     -132.953      51.035       0.321
  N     -131.877      50.254       0.000
  O     -136.664      46.533       2.172
  O     -135.355      47.068       4.312
  H     -129.756      48.998       1.438
  H     -137.374      46.361       2.818
  H     -128.267      53.646       0.336
  H     -133.961      50.647       0.364
  H     -131.168      48.698      -1.142
  H     -131.911      48.338       1.838
  H     -126.608      52.111      -0.302
  H     -131.938      45.939       1.355
  H     -127.058      50.468      -0.610
  H     -133.222      46.328      -1.147
  H     -135.235      47.272       0.207
  H     -134.692      45.607       0.544
  P     -129.478      45.624       0.107
  C     -129.932      43.110      -0.377
  O     -129.117      44.245      -0.625
  O     -129.811      45.152       1.602
  O     -128.413      46.670       0.083
  H     -129.019      45.245       2.162
  H     -129.562      42.276      -0.936
  H     -130.938      43.321      -0.675
  H     -129.911      42.877       0.667

 6  7  8  9  10  11  12  13  14  15  26  29  33  34 0
 6-311+G(2d,p)
 ****
 36  38  39  40  41 0
 6-311+G(2d,p)
 ****
 1  2  3  4  5  16  17  18  19  20  21  22  23  24  25 0
 3-21G
 ****
 27  28  30  31  32  35  37  42  43  44  45  46  47 0
 3-21G
 ****
 48  49 0
 3-21G
 ****


