%nproc=1
%NoSave
%Mem=1900MB
#P OB98/GEN NMR

erre ene a

0 1
  C      356.821    -362.100    -170.073
  O      356.251    -361.106    -170.924
  P      356.264    -361.425    -172.497
  C      353.706    -361.730    -172.801
  O      354.857    -360.960    -173.111
  C      352.457    -360.843    -172.756
  O      352.370    -360.085    -171.533
  C      352.398    -359.827    -173.883
  O      351.951    -360.445    -175.077
  C      351.409    -358.806    -173.331
  O      350.048    -359.214    -173.572
  C      351.716    -358.823    -171.820
  N      351.789    -353.920    -170.541
  C      350.785    -354.670    -171.127
  N      349.629    -354.025    -171.380
  N      350.905    -355.936    -171.430
  C      352.118    -356.450    -171.116
  C      353.181    -355.820    -170.513
  C      353.034    -354.416    -170.185
  O      353.887    -353.715    -169.648
  N      354.222    -356.687    -170.300
  C      353.836    -357.799    -170.887
  N      352.541    -357.730    -171.340
  O      356.200    -363.024    -172.550
  O      357.473    -360.902    -173.202
  H      349.447    -358.571    -173.155
  H      357.054    -363.381    -172.857
  H      351.649    -352.948    -170.340
  H      354.438    -358.692    -170.989
  H      350.794    -358.796    -171.226
  H      351.530    -357.828    -173.802
  H      349.465    -353.052    -171.170
  H      353.384    -359.358    -174.023
  H      348.873    -354.555    -171.800
  H      351.585    -361.506    -172.806
  H      353.840    -362.232    -171.842
  H      353.595    -362.516    -173.556
  P      352.034    -359.602    -176.437
  C      353.539    -361.147    -177.881
  O      352.242    -360.641    -177.634
  O      353.450    -358.863    -176.317
  O      350.928    -358.618    -176.624
  H      353.355    -357.934    -176.595
  H      353.454    -362.147    -178.309
  H      354.135    -361.198    -176.969
  H      354.042    -360.499    -178.605
  H      356.755    -361.778    -169.055
  H      357.848    -362.248    -170.335
  H      356.287    -363.020    -170.191

 3  4  5  6  7  8  9  10  11  12  23  26  30  31 0
 6-311+G(2d,p)
 ****
 33  35  36  37  38 0
 6-311+G(2d,p)
 ****
 1  2  13  14  15  16  17  18  19  20  21  22  24  25 0
 3-21G
 ****
 27  28  29  32  34  39  40  41  42  43  44  45  46  47  48  49 0
 3-21G
 ****


