%nproc=1
%NoSave
%Mem=1900MB
#P OB98/GEN NMR

erre ene a

0 1
  C       90.252    -293.761    -245.376
  O       89.203    -293.294    -246.239
  P       87.833    -294.132    -246.334
  C       85.461    -293.240    -246.984
  O       86.833    -293.368    -247.329
  C       84.899    -291.921    -247.530
  O       85.536    -290.795    -246.873
  C       85.143    -291.701    -249.017
  O       84.256    -292.466    -249.819
  C       84.927    -290.198    -249.138
  O       83.527    -289.888    -249.249
  C       85.495    -289.686    -247.800
  N       86.807    -289.066    -247.940
  C       86.882    -287.703    -247.666
  O       85.903    -287.022    -247.370
  N       88.125    -287.140    -247.772
  C       89.264    -287.776    -248.188
  O       90.343    -287.211    -248.280
  C       89.106    -289.195    -248.543
  C       87.905    -289.764    -248.410
  O       87.166    -293.839    -244.905
  O       87.985    -295.602    -246.557
  H       83.455    -288.914    -249.260
  H       86.594    -294.587    -244.654
  H       88.209    -286.163    -247.547
  H       89.978    -289.728    -248.900
  H       87.770    -290.809    -248.671
  H       84.809    -288.950    -247.354
  H       85.418    -289.772    -250.019
  H       86.184    -291.932    -249.264
  H       83.823    -291.887    -247.305
  H       85.359    -293.252    -245.897
  H       84.910    -294.089    -247.400
  P       84.927    -293.476    -250.872
  C       83.814    -295.140    -252.555
  O       83.736    -293.921    -251.847
  O       85.199    -294.752    -249.939
  O       86.146    -292.915    -251.529
  H       84.519    -294.856    -249.251
  H       84.345    -295.902    -251.981
  H       84.328    -294.976    -253.508
  H       82.796    -295.496    -252.757
  H       91.085    -293.092    -245.432
  H       90.559    -294.739    -245.684
  H       89.894    -293.801    -244.369

 3  4  5  6  7  8  9  10  11  12  13  23  28  29  30  31  32 0
 6-311+G(2d,p)
 ****
 33  34 0
 6-311+G(2d,p)
 ****
 1  2  14  15  16  17  18  19  20  21  22  24  25  26 0
 3-21G
 ****
 27  35  36  37  38  39  40  41  42  43  44  45 0
 3-21G
 ****


