%nproc=1
%NoSave
%Mem=1900MB
#P OB98/GEN NMR

erre ene a

0 1
  C     -547.431    -758.404    2931.610
  O     -546.888    -758.108    2930.329
  H     -547.151    -759.424    2931.887
  H     -548.516    -758.341    2931.567
  H     -547.050    -757.703    2932.363
  P     -547.123    -756.622    2929.768
  C     -544.602    -756.255    2929.246
  O     -545.730    -755.843    2930.000
  C     -543.431    -756.612    2930.155
  O     -543.801    -757.711    2931.036
  C     -542.132    -757.021    2929.427
  O     -541.007    -756.513    2930.177
  C     -542.157    -758.531    2929.539
  O     -540.857    -759.117    2929.389
  C     -542.744    -758.704    2930.945
  N     -541.533    -763.176    2932.886
  C     -540.846    -762.009    2932.854
  N     -539.616    -762.013    2933.431
  N     -541.272    -760.874    2932.309
  C     -542.538    -761.035    2931.798
  C     -543.338    -762.108    2931.761
  C     -542.799    -763.387    2932.335
  O     -543.386    -764.442    2932.377
  N     -544.512    -761.874    2931.134
  C     -544.457    -760.589    2930.790
  N     -543.237    -760.042    2931.175
  O     -548.111    -755.981    2930.866
  O     -547.680    -756.544    2928.397
  H     -540.272    -758.755    2930.065
  H     -549.033    -756.091    2930.588
  H     -541.155    -764.016    2933.331
  H     -545.207    -760.044    2930.271
  H     -541.996    -758.491    2931.730
  H     -542.810    -758.969    2928.759
  H     -539.230    -762.789    2933.901
  H     -542.063    -756.666    2928.407
  H     -539.112    -761.142    2933.456
  H     -543.232    -755.729    2930.819
  H     -544.295    -755.450    2928.562
  H     -544.869    -757.155    2928.616
  P     -540.431    -755.075    2929.792
  C     -540.104    -753.845    2932.102
  O     -540.888    -754.018    2930.904
  O     -541.316    -754.648    2928.518
  O     -538.958    -755.088    2929.499
  H     -540.802    -754.051    2927.909
  H     -540.560    -753.103    2932.723
  H     -539.115    -753.531    2931.839
  H     -540.055    -754.773    2932.633

 6  7  8  9  10  11  12  13  14  15  26  29  33  34 0
 6-311+G(2d,p)
 ****
 36  38  39  40  41 0
 6-311+G(2d,p)
 ****
 1  2  3  4  5  16  17  18  19  20  21  22  23  24  25 0
 3-21G
 ****
 27  28  30  31  32  35  37  42  43  44  45  46  47 0
 3-21G
 ****
 48  49 0
 3-21G
 ****


