%nproc=1
%NoSave
%Mem=1900MB
#P OB98/GEN NMR

erre ene a

0 1
  C      787.185     674.226    -703.106
  O      786.768     672.914    -702.682
  P      785.279     672.481    -703.046
  C      786.080     670.345    -704.317
  O      785.329     671.555    -704.374
  C      785.139     669.174    -704.044
  O      784.501     669.285    -702.746
  C      783.984     669.067    -705.034
  O      784.425     668.555    -706.280
  C      783.032     668.148    -704.275
  O      783.450     666.784    -704.393
  C      783.222     668.629    -702.825
  N      778.954     669.088    -700.011
  C      779.773     668.044    -700.262
  N      780.887     667.994    -701.018
  C      781.147     669.210    -701.549
  C      780.413     670.371    -701.382
  C      779.258     670.280    -700.576
  N      778.430     671.359    -700.343
  N      780.994     671.408    -702.091
  C      782.036     670.881    -702.689
  N      782.181     669.551    -702.384
  O      784.605     673.833    -703.570
  O      784.522     671.899    -701.904
  H      784.393     666.752    -704.112
  H      783.971     674.168    -702.909
  H      779.482     667.111    -699.779
  H      782.702     671.410    -703.352
  H      783.225     667.786    -702.102
  H      781.984     668.221    -704.637
  H      783.527     670.060    -705.186
  H      785.726     668.245    -704.052
  H      786.838     670.403    -703.535
  H      777.590     671.201    -699.806
  H      778.608     672.232    -700.822
  H      786.613     670.210    -705.257
  P      784.464     669.574    -707.528
  C      786.817     668.589    -707.788
  O      786.028     669.749    -707.842
  O      784.064     670.953    -706.837
  O      783.617     669.161    -708.694
  H      784.566     671.098    -706.004
  H      787.855     668.847    -708.045
  H      786.445     667.844    -708.508
  H      786.812     668.169    -706.766
  H      788.197     674.394    -702.803
  H      786.552     674.963    -702.659
  H      787.116     674.295    -704.172

 3  4  5  6  7  8  9  10  11  12  22  25  29  30  31  32 0
 6-311+G(2d,p)
 ****
 33  36  37 0
 6-311+G(2d,p)
 ****
 1  2  13  14  15  16  17  18  19  20  21  23  24  26 0
 3-21G
 ****
 27  28  34  35  38  39  40  41  42  43  44  45  46  47  48 0
 3-21G
 ****


