%nproc=1
%NoSave
%Mem=1900MB
#P OB98/GEN NMR

erre ene a

0 1
  C     -108.757    -291.983    -207.860
  O     -108.761    -293.235    -207.214
  P     -108.163    -293.391    -205.734
  C     -110.388    -293.127    -204.465
  O     -109.124    -292.541    -204.770
  C     -110.490    -293.408    -202.968
  O     -110.405    -292.181    -202.202
  C     -111.810    -294.027    -202.544
  O     -112.101    -295.328    -203.006
  C     -111.766    -293.820    -201.038
  O     -110.976    -294.821    -200.398
  C     -111.073    -292.436    -200.937
  N     -112.020    -291.376    -200.597
  C     -112.361    -291.271    -199.255
  O     -111.915    -292.011    -198.379
  N     -113.271    -290.297    -198.945
  C     -113.892    -289.468    -199.836
  O     -114.735    -288.644    -199.492
  C     -113.502    -289.637    -201.241
  C     -112.598    -290.566    -201.560
  O     -106.710    -293.076    -205.600
  O     -108.538    -294.899    -205.343
  H     -111.375    -295.686    -200.603
  H     -109.493    -295.095    -205.347
  H     -113.545    -290.213    -197.979
  H     -113.967    -288.985    -201.971
  H     -112.294    -290.709    -202.589
  H     -110.293    -292.458    -200.166
  H     -112.765    -293.864    -200.589
  H     -112.624    -293.394    -202.927
  H     -109.639    -294.030    -202.677
  H     -110.483    -294.067    -205.015
  H     -111.188    -292.459    -204.803
  P     -113.588    -295.914    -203.121
  C     -113.942    -294.827    -205.447
  O     -114.420    -294.987    -204.127
  O     -114.252    -296.314    -201.845
  O     -113.344    -297.230    -204.012
  H     -113.998    -297.910    -203.762
  H     -114.601    -294.131    -205.976
  H     -113.949    -295.787    -205.975
  H     -112.931    -294.411    -205.441
  H     -109.195    -292.082    -208.831
  H     -107.750    -291.634    -207.956
  H     -109.324    -291.282    -207.283

 3  4  5  6  7  8  9  10  11  12  13  23  28  29  30  31  32 0
 6-311+G(2d,p)
 ****
 33  34 0
 6-311+G(2d,p)
 ****
 1  2  14  15  16  17  18  19  20  21  22  24  25  26  27 0
 3-21G
 ****
 35  36  37  38  39  40  41  42  43  44  45 0
 3-21G
 ****


