%nproc=1
%NoSave
%Mem=1900MB
#P OB98/GEN NMR

erre ene a

0 1
  C     -477.149    -242.776    -511.725
  O     -476.304    -243.932    -511.723
  P     -475.881    -244.685    -513.066
  C     -473.540    -245.557    -512.449
  O     -474.289    -244.626    -513.234
  C     -472.440    -244.871    -511.625
  O     -472.993    -243.836    -510.786
  C     -471.663    -245.807    -510.712
  O     -470.699    -246.549    -511.425
  C     -471.080    -244.797    -509.702
  O     -469.887    -244.186    -510.236
  C     -472.220    -243.780    -509.572
  N     -472.659    -243.173    -504.519
  C     -471.705    -242.795    -505.393
  N     -471.646    -243.007    -506.726
  C     -472.747    -243.650    -507.141
  C     -473.824    -244.096    -506.372
  C     -473.739    -243.840    -504.983
  N     -474.727    -244.236    -504.090
  N     -474.746    -244.748    -507.145
  C     -474.279    -244.671    -508.377
  N     -473.074    -244.014    -508.419
  O     -476.628    -244.249    -514.285
  O     -476.170    -246.239    -512.776
  H     -469.237    -244.897    -510.403
  H     -476.375    -246.704    -513.610
  H     -470.862    -242.272    -504.958
  H     -474.761    -245.064    -509.249
  H     -471.832    -242.761    -509.492
  H     -470.790    -245.270    -508.758
  H     -472.338    -246.468    -510.187
  H     -471.756    -244.386    -512.354
  H     -473.091    -246.300    -513.122
  H     -474.577    -244.048    -503.122
  H     -475.513    -244.773    -504.440
  H     -474.247    -246.083    -511.775
  P     -471.091    -247.980    -512.048
  C     -470.246    -247.931    -514.476
  O     -471.352    -247.753    -513.634
  O     -472.161    -248.719    -511.319
  O     -469.701    -248.758    -512.057
  H     -469.887    -249.739    -511.964
  H     -469.618    -247.032    -514.460
  H     -470.597    -248.077    -515.499
  H     -469.648    -248.793    -514.181
  H     -477.298    -242.442    -510.720
  H     -478.093    -243.025    -512.162
  H     -476.687    -241.997    -512.295

 3  4  5  6  7  8  9  10  11  12  22  25  29  30  31  32 0
 6-311+G(2d,p)
 ****
 33  36  37 0
 6-311+G(2d,p)
 ****
 1  2  13  14  15  16  17  18  19  20  21  23  24  26 0
 3-21G
 ****
 27  28  34  35  38  39  40  41  42  43  44  45  46  47  48 0
 3-21G
 ****


