%nproc=1
%NoSave
%Mem=1900MB
#P OB98/GEN NMR

erre ene a

0 1
  C     -172.104     -90.950     -66.884
  O     -170.795     -91.386     -66.503
  P     -170.706     -92.663     -65.536
  C     -169.961     -93.147     -63.100
  O     -169.978     -92.216     -64.175
  C     -169.434     -92.505     -61.812
  O     -167.995     -92.294     -61.887
  C     -170.066     -91.144     -61.499
  O     -170.153     -91.022     -60.073
  C     -169.032     -90.160     -62.010
  O     -169.203     -88.870     -61.431
  C     -167.747     -90.894     -61.633
  N     -163.567     -87.967     -61.467
  C     -164.518     -88.238     -60.546
  N     -165.615     -89.014     -60.677
  C     -165.656     -89.572     -61.902
  C     -164.766     -89.382     -62.945
  C     -163.675     -88.532     -62.694
  N     -162.719     -88.232     -63.639
  N     -165.169     -90.087     -64.062
  C     -166.285     -90.686     -63.697
  N     -166.603     -90.432     -62.393
  O     -169.621     -93.594     -66.257
  O     -172.007     -93.377     -65.358
  H     -168.504     -88.281     -61.787
  H     -170.061     -94.366     -66.659
  H     -164.382     -87.764     -59.577
  H     -166.900     -91.304     -64.334
  H     -167.494     -90.778     -60.569
  H     -169.120     -90.061     -63.101
  H     -171.053     -90.987     -61.947
  H     -169.620     -93.196     -60.981
  H     -169.329     -94.002     -63.358
  H     -161.985     -87.588     -63.387
  H     -162.815     -88.609     -64.570
  H     -170.970     -93.552     -62.961
  P     -171.624     -90.875     -59.455
  C     -173.304     -88.916     -59.185
  O     -172.000     -89.320     -59.552
  O     -171.403     -91.117     -57.888
  O     -172.627     -91.822     -60.034
  H     -172.226     -91.447     -57.480
  H     -173.238     -87.976     -58.629
  H     -173.808     -89.659     -58.558
  H     -173.894     -88.749     -60.088
  H     -172.023     -90.097     -67.525
  H     -172.661     -90.688     -66.009
  H     -172.606     -91.740     -67.403

 3  4  5  6  7  8  9  10  11  12  22  25  29  30  31  32 0
 6-311+G(2d,p)
 ****
 33  36  37 0
 6-311+G(2d,p)
 ****
 1  2  13  14  15  16  17  18  19  20  21  23  24  26 0
 3-21G
 ****
 27  28  34  35  38  39  40  41  42  43  44  45  46  47  48 0
 3-21G
 ****


