%nproc=1
%NoSave
%Mem=1900MB
#P OB98/GEN NMR

erre ene a

0 1
  C      -23.238    -269.473      65.381
  O      -22.200    -269.210      64.451
  P      -21.026    -268.176      64.810
  C      -22.341    -266.265      63.703
  O      -21.119    -266.991      63.730
  C      -22.188    -264.974      62.895
  O      -23.469    -264.303      62.834
  C      -21.187    -264.000      63.499
  O      -20.494    -263.325      62.442
  C      -22.048    -262.978      64.226
  O      -21.378    -261.713      64.339
  C      -23.306    -262.968      63.354
  N      -26.582    -259.201      64.551
  C      -25.504    -259.224      63.738
  N      -24.664    -260.255      63.486
  C      -25.066    -261.358      64.134
  C      -26.149    -261.487      64.996
  C      -26.928    -260.337      65.202
  N      -28.036    -260.313      66.020
  N      -26.225    -262.771      65.498
  C      -25.224    -263.412      64.936
  N      -24.501    -262.604      64.094
  O      -19.672    -268.781      64.950
  O      -21.508    -267.473      66.163
  H      -21.500    -261.244      63.485
  H      -20.745    -267.324      66.758
  H      -25.285    -258.293      63.222
  H      -24.972    -264.444      65.110
  H      -23.203    -262.283      62.499
  H      -22.262    -263.338      65.242
  H      -20.464    -264.482      64.167
  H      -21.904    -265.238      61.865
  H      -22.621    -266.015      64.730
  H      -28.605    -259.482      66.012
  H      -28.392    -261.199      66.365
  H      -23.131    -266.896      63.271
  P      -18.919    -263.640      62.318
  C      -18.420    -261.528      63.761
  O      -18.204    -262.227      62.550
  O      -18.591    -264.370      61.054
  O      -18.661    -264.476      63.662
  H      -19.325    -264.255      64.352
  H      -17.879    -260.574      63.714
  H      -18.035    -262.105      64.603
  H      -19.486    -261.326      63.902
  H      -23.920    -270.183      64.963
  H      -23.759    -268.565      65.600
  H      -22.818    -269.870      66.282

 3  4  5  6  7  8  9  10  11  12  22  25  29  30  31  32 0
 6-311+G(2d,p)
 ****
 33  36  37 0
 6-311+G(2d,p)
 ****
 1  2  13  14  15  16  17  18  19  20  21  23  24  26 0
 3-21G
 ****
 27  28  34  35  38  39  40  41  42  43  44  45  46  47  48 0
 3-21G
 ****


