%nproc=1
%NoSave
%Mem=1900MB
#P OB98/GEN NMR

erre ene a

0 1
  C       -3.997     310.015    -285.679
  O       -2.812     309.842    -284.899
  P       -1.926     311.156    -284.653
  C       -1.889     310.974    -282.064
  O       -1.136     310.970    -283.269
  C       -1.112     310.284    -280.939
  O       -0.963     308.869    -281.162
  C        0.303     310.830    -280.759
  O        0.261     312.046    -280.028
  C        0.973     309.696    -279.996
  O        0.714     309.786    -278.580
  C        0.301     308.447    -280.585
  N        3.717     304.785    -281.385
  C        3.259     305.326    -280.198
  N        3.766     304.800    -279.064
  N        2.382     306.294    -280.132
  C        1.962     306.724    -281.345
  C        2.320     306.249    -282.586
  C        3.293     305.178    -282.647
  O        3.711     304.651    -283.672
  N        1.633     306.892    -283.587
  C        0.961     307.835    -282.957
  N        1.075     307.737    -281.591
  O       -3.015     312.281    -284.328
  O       -1.079     311.533    -285.826
  H        1.274     309.142    -278.112
  H       -3.065     312.917    -285.067
  H        4.399     304.045    -281.377
  H        0.360     308.594    -283.433
  H        0.065     307.711    -279.805
  H        2.062     309.721    -280.111
  H        4.440     304.052    -279.039
  H        0.782     310.967    -281.733
  H        3.437     305.177    -278.182
  H       -1.684     310.424    -280.013
  H       -2.842     310.467    -282.217
  H       -2.120     312.011    -281.799
  P        0.920     313.344    -280.698
  C       -0.039     315.406    -279.450
  O        1.015     314.474    -279.570
  O       -0.238     313.874    -281.678
  O        2.181     313.079    -281.453
  H        0.151     314.118    -282.540
  H       -0.109     315.729    -278.406
  H       -0.999     314.977    -279.752
  H        0.179     316.276    -280.075
  H       -4.501     309.076    -285.774
  H       -3.735     310.379    -286.650
  H       -4.642     310.719    -285.196

 3  4  5  6  7  8  9  10  11  12  23  26  30  31 0
 6-311+G(2d,p)
 ****
 33  35  36  37  38 0
 6-311+G(2d,p)
 ****
 1  2  13  14  15  16  17  18  19  20  21  22  24  25 0
 3-21G
 ****
 27  28  29  32  34  39  40  41  42  43  44  45  46  47  48  49 0
 3-21G
 ****


