%nproc=1
%NoSave
%Mem=1900MB
#P OB98/GEN NMR

erre ene a

0 1
  C       42.208     -56.229     428.256
  O       43.591     -56.178     428.615
  P       44.112     -57.282     429.659
  C       45.562     -58.795     428.125
  O       45.541     -57.824     429.163
  C       46.993     -59.203     427.756
  O       47.780     -58.045     427.373
  C       47.733     -59.913     428.882
  O       48.610     -60.878     428.284
  C       48.581     -58.802     429.487
  O       49.684     -59.332     430.221
  C       48.953     -58.010     428.218
  N       49.380     -56.640     428.506
  C       50.750     -56.410     428.603
  O       51.547     -57.353     428.524
  N       51.192     -55.128     428.837
  C       50.337     -54.175     429.006
  N       50.834     -52.922     429.235
  C       48.876     -54.383     428.970
  C       48.476     -55.625     428.714
  O       43.127     -58.524     429.404
  O       44.064     -56.832     431.084
  H       50.385     -58.643     430.251
  H       42.770     -58.840     430.254
  H       48.197     -53.558     429.137
  H       47.421     -55.877     428.662
  H       49.765     -58.507     427.678
  H       47.975     -58.192     430.164
  H       47.078     -60.409     429.604
  H       46.939     -59.862     426.874
  H       51.841     -52.818     429.248
  H       45.056     -58.404     427.240
  H       50.260     -52.112     429.382
  H       44.974     -59.667     428.445
  P       48.323     -62.434     428.546
  C       46.485     -62.869     426.803
  O       47.864     -63.009     427.119
  O       46.924     -62.371     429.334
  O       49.343     -63.227     429.299
  H       46.673     -63.266     429.618
  H       46.334     -63.186     425.764
  H       46.174     -61.824     426.906
  H       45.887     -63.504     427.452
  H       41.991     -55.446     427.560
  H       41.607     -56.103     429.132
  H       41.991     -57.176     427.807

 3  4  5  6  7  8  9  10  11  12  13  21  23  27  28  29  30  32 0
 6-311+G(2d,p)
 ****
 34  35 0
 6-311+G(2d,p)
 ****
 1  2  14  15  16  17  18  19  20  22  24  25  26 0
 3-21G
 ****
 31  33  36  37  38  39  40  41  42  43  44  45  46 0
 3-21G
 ****


