%nproc=1
%NoSave
%Mem=1900MB
#P OB98/GEN NMR

erre ene a

0 1
  C      387.003     621.355     684.557
  O      387.161     621.145     685.959
  P      385.895     620.637     686.811
  C      384.764     618.421     686.134
  O      385.886     619.027     686.772
  C      385.042     616.941     685.844
  O      386.101     616.780     684.873
  C      385.503     616.168     687.080
  O      384.415     615.921     687.943
  C      386.119     614.932     686.429
  O      385.107     613.968     686.097
  C      386.742     615.515     685.141
  N      388.186     615.642     685.217
  C      388.934     614.828     684.355
  O      388.362     614.028     683.610
  N      390.305     614.944     684.368
  C      390.880     615.781     685.179
  N      392.238     615.847     685.149
  C      390.133     616.650     686.116
  C      388.812     616.521     686.091
  O      384.597     621.295     686.492
  O      386.343     620.944     688.326
  H      385.483     613.392     685.406
  H      385.538     621.118     688.857
  H      390.661     617.339     686.773
  H      388.182     617.115     686.752
  H      386.519     614.861     684.286
  H      386.821     614.431     687.099
  H      386.278     616.734     687.601
  H      384.123     616.498     685.436
  H      392.723     615.237     684.506
  H      384.550     618.946     685.191
  H      392.769     616.505     685.697
  H      383.883     618.539     686.771
  P      384.204     616.925     689.178
  C      382.831     619.112     688.898
  O      384.024     618.397     688.575
  O      385.660     616.977     689.856
  O      383.160     616.502     690.165
  H      385.566     617.084     690.814
  H      383.008     620.174     688.686
  H      382.573     618.997     689.949
  H      382.022     618.767     688.261
  H      387.930     621.689     684.140
  H      386.249     622.095     684.390
  H      386.712     620.438     684.090

 3  4  5  6  7  8  9  10  11  12  13  23  27  28  29  30  32 0
 6-311+G(2d,p)
 ****
 34  35 0
 6-311+G(2d,p)
 ****
 1  2  14  15  16  17  18  19  20  21  22  24  25  26 0
 3-21G
 ****
 31  33  36  37  38  39  40  41  42  43  44  45  46 0
 3-21G
 ****


