%nproc=1
%NoSave
%Mem=1900MB
#P OB98/GEN NMR

erre ene a

0 1
  C        9.994     -45.520      98.788
  O       10.905     -46.106      99.696
  H       10.541     -44.839      98.131
  H        9.232     -44.952      99.329
  H        9.518     -46.294      98.181
  P       10.273     -47.064     100.820
  C       11.616     -45.909     102.736
  O       10.348     -46.175     102.156
  C       11.471     -45.771     104.248
  O       12.757     -45.542     104.863
  C       10.597     -44.601     104.685
  O        9.211     -44.873     104.570
  C       11.028     -44.464     106.133
  O       10.424     -45.509     106.917
  C       12.555     -44.674     106.011
  N       13.295     -43.423     105.846
  C       13.683     -42.763     107.018
  O       13.395     -43.224     108.121
  N       14.362     -41.572     106.914
  C       14.640     -41.087     105.744
  N       15.301     -39.899     105.700
  C       14.266     -41.758     104.485
  C       13.604     -42.905     104.608
  O       11.414     -48.159     101.067
  O        8.929     -47.634     100.516
  H       10.749     -45.402     107.829
  H       11.171     -48.728     101.837
  H       14.511     -41.309     103.533
  H       13.294     -43.452     103.725
  H       12.949     -45.199     106.889
  H       10.733     -43.514     106.581
  H       10.860     -43.680     104.153
  H       11.087     -46.722     104.639
  H       15.489     -39.434     106.577
  H       12.004     -44.981     102.306
  H       15.399     -39.362     104.848
  H       12.310     -46.725     102.511
  P        8.415     -44.187     103.356
  C        6.885     -42.898     105.011
  O        7.788     -42.821     103.918
  O        7.137     -45.132     103.182
  O        9.194     -44.057     102.084
  H        6.911     -45.249     102.240
  H        6.555     -41.914     105.271
  H        7.378     -43.342     105.851
  H        6.042     -43.496     104.736

 6  7  8  9  10  11  12  13  14  15  16  26  30  31  32  33  35 0
 6-311+G(2d,p)
 ****
 37  38 0
 6-311+G(2d,p)
 ****
 1  2  3  4  5  17  18  19  20  21  22  23  24  25 0
 3-21G
 ****
 27  28  29  34  36  39  40  41  42  43  44  45  46 0
 3-21G
 ****


