%nproc=1
%NoSave
%Mem=1900MB
#P OB98/GEN NMR

erre ene a

0 1
  C     -480.934     252.294      68.538
  O     -479.675     251.676      68.774
  P     -479.031     250.864      67.559
  C     -477.664     252.834      66.514
  O     -477.644     251.583      67.191
  C     -476.494     253.700      66.989
  O     -476.837     254.385      68.206
  C     -475.223     252.909      67.295
  O     -474.531     252.561      66.105
  C     -474.473     253.877      68.198
  O     -473.741     254.835      67.406
  C     -475.617     254.563      68.968
  N     -475.749     254.065      70.322
  C     -475.083     254.781      71.319
  O     -474.387     255.778      71.057
  N     -475.176     254.303      72.587
  C     -475.845     253.171      72.967
  O     -475.869     252.782      74.130
  C     -476.519     252.443      71.899
  C     -476.440     252.900      70.654
  O     -479.968     251.207      66.307
  O     -478.917     249.384      67.779
  H     -473.100     254.325      66.883
  H     -480.047     250.427      65.722
  H     -474.722     254.828      73.318
  H     -477.048     251.531      72.165
  H     -476.912     252.363      69.823
  H     -475.449     255.652      69.006
  H     -473.747     253.367      68.841
  H     -475.495     252.007      67.882
  H     -476.296     254.442      66.206
  H     -478.602     253.334      66.706
  H     -477.588     252.643      65.434
  P     -474.094     251.011      65.955
  C     -476.044     250.478      64.326
  O     -474.659     250.569      64.516
  O     -475.052     250.316      67.027
  O     -472.634     250.805      66.184
  H     -475.897     250.779      67.117
  H     -476.602     251.231      64.883
  H     -476.398     249.471      64.632
  H     -476.274     250.599      63.249
  H     -481.254     252.802      69.424
  H     -481.654     251.547      68.275
  H     -480.841     252.998      67.737

 3  4  5  6  7  8  9  10  11  12  13  23  28  29  30  31  32 0
 6-311+G(2d,p)
 ****
 33  34 0
 6-311+G(2d,p)
 ****
 1  2  14  15  16  17  18  19  20  21  22  24  25  26 0
 3-21G
 ****
 27  35  36  37  38  39  40  41  42  43  44  45 0
 3-21G
 ****


