%nproc=1
%NoSave
%Mem=1900MB
#P OB98/GEN NMR

erre ene a

0 1
  C      187.719     -87.352    -217.946
  O      187.254     -87.265    -216.613
  H      187.775     -86.341    -218.362
  H      187.040     -87.946    -218.560
  H      188.720     -87.792    -217.964
  P      186.821     -88.623    -215.875
  C      184.437     -87.823    -215.296
  O      185.718     -88.184    -214.789
  C      183.493     -87.402    -214.171
  O      183.347     -88.465    -213.205
  C      183.980     -86.208    -213.364
  O      184.018     -84.992    -214.076
  C      183.126     -86.310    -212.110
  O      181.830     -85.740    -212.284
  C      183.011     -87.845    -211.942
  N      183.845     -88.349    -210.858
  C      183.489     -87.941    -209.576
  O      182.549     -87.183    -209.340
  N      184.280     -88.410    -208.562
  C      185.391     -89.186    -208.706
  O      186.070     -89.556    -207.756
  C      185.740     -89.556    -210.088
  C      184.962     -89.126    -211.084
  O      187.944     -89.437    -215.305
  O      185.955     -89.396    -216.974
  H      181.431     -86.169    -213.064
  H      185.838     -90.349    -216.730
  H      184.030     -88.136    -207.624
  H      186.620     -90.162    -210.241
  H      185.197     -89.387    -212.114
  H      181.970     -88.125    -211.728
  H      183.588     -85.809    -211.255
  H      185.012     -86.404    -213.051
  H      182.506     -87.214    -214.607
  H      184.022     -88.697    -215.807
  H      184.548     -87.008    -216.021
  P      185.346     -84.142    -214.305
  C      184.508     -82.025    -213.020
  O      184.971     -82.585    -214.243
  O      186.258     -84.602    -215.395
  O      186.117     -84.357    -212.902
  H      187.075     -84.371    -213.099
  H      184.306     -80.983    -213.158
  H      185.257     -82.146    -212.266
  H      183.612     -82.524    -212.716

 6  7  8  9  10  11  12  13  14  15  16  26  31  32  33  34  35 0
 6-311+G(2d,p)
 ****
 36  37 0
 6-311+G(2d,p)
 ****
 1  2  3  4  5  17  18  19  20  21  22  23  24  25 0
 3-21G
 ****
 27  28  29  30  38  39  40  41  42  43  44  45 0
 3-21G
 ****


