%nproc=1
%NoSave
%Mem=1900MB
#P OB98/GEN NMR

erre ene a

0 1
  C      130.259      18.594    -245.656
  O      130.257      18.521    -244.241
  H      129.755      17.709    -246.056
  H      131.290      18.604    -246.025
  H      129.732      19.484    -246.006
  P      130.690      19.813    -243.400
  C      132.819      18.723    -242.422
  O      132.285      19.753    -243.254
  C      133.947      19.266    -241.549
  O      134.377      18.206    -240.634
  C      135.196      19.718    -242.334
  O      135.794      20.803    -241.608
  C      136.062      18.475    -242.249
  O      137.393      18.734    -242.626
  C      135.808      18.067    -240.796
  N      136.250      16.719    -240.486
  C      137.483      16.582    -239.860
  O      138.209      17.523    -239.545
  N      137.888      15.291    -239.616
  C      137.189      14.162    -239.929
  O      137.587      13.032    -239.668
  C      135.904      14.373    -240.613
  C      135.495      15.614    -240.853
  O      129.945      20.037    -242.125
  O      130.474      21.027    -244.423
  H      129.611      21.452    -244.251
  H      137.976      17.979    -242.380
  H      138.785      15.173    -239.159
  H      135.337      13.492    -240.894
  H      134.553      15.812    -241.362
  H      136.279      18.778    -240.110
  H      135.689      17.709    -242.939
  H      134.964      20.044    -243.354
  H      133.556      20.080    -240.926
  H      133.205      17.933    -243.076
  H      132.022      18.319    -241.794
  P      135.594      22.349    -242.020
  C      137.676      22.661    -243.514
  O      136.258      22.607    -243.462
  O      136.065      23.310    -240.969
  O      134.027      22.525    -242.279
  H      133.751      23.413    -241.980
  H      137.990      22.836    -244.522
  H      138.081      21.732    -243.171
  H      138.026      23.455    -242.888

 6  7  8  9  10  11  12  13  14  15  16  27  31  32  33  34  35 0
 6-311+G(2d,p)
 ****
 36  37 0
 6-311+G(2d,p)
 ****
 1  2  3  4  5  17  18  19  20  21  22  23  24  25 0
 3-21G
 ****
 26  28  29  30  38  39  40  41  42  43  44  45 0
 3-21G
 ****


