%nproc=1
%NoSave
%Mem=1900MB
#P OB98/GEN NMR

erre ene a

0 1
  C     -241.215    -364.965    -550.964
  O     -241.277    -364.342    -552.235
  H     -242.049    -364.599    -550.355
  H     -240.277    -364.699    -550.465
  H     -241.291    -366.048    -551.064
  P     -240.243    -364.862    -553.342
  C     -241.773    -366.498    -554.719
  O     -240.717    -366.332    -553.780
  C     -241.202    -366.761    -556.106
  O     -240.465    -368.003    -556.142
  C     -242.259    -366.942    -557.188
  O     -242.904    -365.739    -557.526
  C     -241.406    -367.521    -558.311
  O     -240.676    -366.483    -558.986
  C     -240.449    -368.450    -557.524
  N     -240.814    -369.853    -557.643
  C     -239.787    -370.715    -558.069
  O     -238.671    -370.276    -558.309
  N     -240.084    -372.043    -558.232
  C     -241.279    -372.493    -557.985
  N     -241.504    -373.813    -558.176
  C     -242.371    -371.622    -557.506
  C     -242.076    -370.326    -557.363
  O     -238.927    -365.150    -552.484
  O     -240.032    -363.940    -554.503
  H     -240.276    -366.892    -559.772
  H     -239.081    -365.740    -551.723
  H     -243.350    -372.033    -557.295
  H     -242.827    -369.621    -557.022
  H     -239.418    -368.335    -557.886
  H     -242.015    -368.023    -559.073
  H     -242.976    -367.721    -556.886
  H     -240.509    -365.943    -556.361
  H     -240.728    -374.378    -558.522
  H     -242.429    -365.615    -554.731
  H     -242.399    -374.263    -558.043
  H     -242.383    -367.348    -554.390
  P     -244.204    -365.752    -558.486
  C     -245.774    -364.885    -556.636
  O     -245.478    -365.966    -557.528
  O     -244.125    -366.707    -559.638
  O     -244.354    -364.222    -558.914
  H     -244.484    -363.598    -558.178
  H     -246.634    -365.132    -556.050
  H     -245.971    -363.999    -557.202
  H     -244.938    -364.717    -555.990

 6  7  8  9  10  11  12  13  14  15  16  26  30  31  32  33  35 0
 6-311+G(2d,p)
 ****
 37  38 0
 6-311+G(2d,p)
 ****
 1  2  3  4  5  17  18  19  20  21  22  23  24  25 0
 3-21G
 ****
 27  28  29  34  36  39  40  41  42  43  44  45  46 0
 3-21G
 ****


