%nproc=1
%NoSave
%Mem=1900MB
#P OB98/GEN NMR

erre ene a

0 1
  C      324.044      12.199     -98.717
  O      323.701      13.125     -99.728
  H      324.845      11.540     -99.065
  H      324.399      12.749     -97.840
  H      323.170      11.606     -98.434
  P      323.189      12.517    -101.122
  C      321.262      10.885    -101.751
  O      322.073      11.432    -100.722
  C      320.854       9.465    -101.372
  O      322.029       8.631    -101.245
  C      320.132       9.369    -100.032
  O      318.751       9.677    -100.135
  C      320.347       7.903     -99.700
  O      319.452       7.090    -100.480
  C      321.798       7.691    -100.160
  N      325.304       5.510     -97.132
  C      324.530       5.011     -98.121
  N      323.637       5.662     -98.894
  C      323.589       6.962     -98.571
  C      324.322       7.617     -97.593
  C      325.213       6.829     -96.846
  N      325.982       7.327     -95.817
  N      323.982       8.955     -97.544
  C      323.074       9.105     -98.486
  N      322.779       7.925     -99.114
  O      324.412      11.611    -101.615
  O      322.746      13.509    -102.144
  H      319.625       6.162    -100.234
  H      324.301      11.370    -102.555
  H      324.640       3.947     -98.314
  H      322.596      10.042     -98.745
  H      321.973       6.682    -100.549
  H      320.155       7.676     -98.649
  H      320.621       9.985     -99.267
  H      320.240       9.055    -102.182
  H      321.831      10.868    -102.685
  H      326.476       6.659     -95.246
  H      325.813       8.271     -95.500
  H      320.372      11.510    -101.882
  P      318.012      10.217     -98.815
  C      318.418      12.250     -97.251
  O      318.980      11.327     -98.176
  O      318.146       8.984     -97.803
  O      316.594      10.630     -99.020
  H      317.377       8.942     -97.203
  H      319.178      12.923     -96.913
  H      318.016      11.717     -96.415
  H      317.637      12.804     -97.729

 6  7  8  9  10  11  12  13  14  15  25  28  32  33  34  35 0
 6-311+G(2d,p)
 ****
 36  39  40 0
 6-311+G(2d,p)
 ****
 1  2  3  4  5  16  17  18  19  20  21  22  23  24 0
 3-21G
 ****
 26  27  29  30  31  37  38  41  42  43  44  45  46  47 0
 3-21G
 ****
 48 0
 3-21G
 ****


