%nproc=1
%NoSave
%Mem=1900MB
#P OB98/GEN NMR

erre ene a

0 1
  C      -45.796      33.604     -85.130
  O      -45.027      34.458     -84.305
  H      -45.606      32.568     -84.836
  H      -45.505      33.732     -86.177
  H      -46.861      33.817     -85.009
  P      -45.148      36.033     -84.597
  C      -45.254      37.463     -86.762
  O      -44.913      36.212     -86.177
  C      -44.847      37.492     -88.231
  O      -43.405      37.476     -88.361
  C      -45.369      36.322     -89.054
  O      -46.705      36.547     -89.477
  C      -44.381      36.305     -90.211
  O      -44.717      37.294     -91.206
  C      -43.060      36.657     -89.511
  N      -39.467      33.387     -90.884
  C      -39.972      34.487     -91.546
  N      -39.480      34.719     -92.786
  N      -40.881      35.283     -91.049
  C      -41.302      34.907     -89.817
  C      -40.870      33.848     -89.051
  C      -39.839      32.995     -89.603
  O      -39.304      32.043     -89.041
  N      -41.525      33.808     -87.847
  C      -42.377      34.812     -87.901
  N      -42.292      35.501     -89.085
  O      -43.809      36.636     -83.958
  O      -46.365      36.695     -84.046
  H      -45.323      36.902     -91.854
  H      -43.985      37.543     -83.645
  H      -38.755      32.822     -91.312
  H      -43.071      35.079     -87.118
  H      -42.402      37.259     -90.151
  H      -44.374      35.339     -90.723
  H      -39.051      33.984     -93.332
  H      -45.286      35.382     -88.491
  H      -39.859      35.511     -93.285
  H      -45.198      38.445     -88.651
  H      -44.727      38.262     -86.225
  H      -46.334      37.621     -86.669
  P      -47.633      35.262     -89.733
  C      -47.981      33.618     -91.725
  O      -47.393      34.828     -91.260
  O      -49.112      35.875     -89.756
  O      -47.492      34.177     -88.722
  H      -49.772      35.163     -89.634
  H      -47.729      33.472     -92.755
  H      -49.045      33.676     -91.623
  H      -47.611      32.797     -91.147

 6  7  8  9  10  11  12  13  14  15  26  29  33  34 0
 6-311+G(2d,p)
 ****
 36  38  39  40  41 0
 6-311+G(2d,p)
 ****
 1  2  3  4  5  16  17  18  19  20  21  22  23  24  25 0
 3-21G
 ****
 27  28  30  31  32  35  37  42  43  44  45  46  47 0
 3-21G
 ****
 48  49 0
 3-21G
 ****


