%nproc=1
%NoSave
%Mem=1900MB
#P OB98/GEN NMR

erre ene a

0 1
  C       10.309     266.351     393.211
  O        9.975     264.957     393.112
  P       10.775     263.801     393.885
  C       11.721     263.072     391.584
  O       11.149     262.657     392.821
  C       12.497     261.923     390.934
  O       13.616     261.535     391.765
  C       11.710     260.632     390.744
  O       10.767     260.724     389.692
  C       12.837     259.632     390.490
  O       13.238     259.631     389.111
  C       13.974     260.192     391.367
  N       14.262     259.361     392.528
  C       15.347     258.490     392.423
  O       15.965     258.391     391.365
  N       15.695     257.745     393.524
  C       14.958     257.780     394.589
  N       15.365     257.033     395.652
  C       13.724     258.582     394.688
  C       13.440     259.343     393.633
  O       10.074     263.288     395.099
  O       12.191     264.446     394.261
  H       12.553     263.999     395.052
  H       14.071     259.121     389.062
  H       13.116     258.554     395.583
  H       12.558     259.974     393.630
  H       14.891     260.303     390.773
  H       12.542     258.611     390.743
  H       11.202     260.378     391.681
  H       12.886     262.280     389.968
  H       16.222     256.505     395.550
  H       12.414     263.897     391.786
  H       14.878     257.011     396.534
  H       10.930     263.434     390.924
  P        9.215     260.704     390.104
  C        9.149     258.117     389.928
  O        8.579     259.348     389.535
  O        8.569     261.843     389.183
  O        8.958     260.961     391.554
  H        7.895     262.334     389.694
  H        8.376     257.343     389.886
  H        9.555     258.161     390.942
  H        9.948     257.851     389.228
  H        9.635     266.923     392.608
  H       11.311     266.503     392.868
  H       10.229     266.665     394.231

 3  4  5  6  7  8  9  10  11  12  13  24  27  28  29  30  32 0
 6-311+G(2d,p)
 ****
 34  35 0
 6-311+G(2d,p)
 ****
 1  2  14  15  16  17  18  19  20  21  22  23  25  26 0
 3-21G
 ****
 31  33  36  37  38  39  40  41  42  43  44  45  46 0
 3-21G
 ****


