%nproc=1
%NoSave
%Mem=1900MB
#P OB98/GEN NMR

erre ene a

0 1
  C     1084.525    -164.648    -412.717
  O     1083.154    -164.626    -412.392
  H     1084.897    -163.611    -412.749
  H     1084.685    -165.103    -413.697
  H     1085.090    -165.200    -411.953
  P     1082.414    -166.051    -412.326
  C     1080.101    -164.847    -412.313
  O     1080.954    -165.815    -412.943
  C     1078.813    -164.694    -413.126
  O     1079.081    -164.075    -414.394
  C     1078.078    -165.979    -413.408
  O     1077.275    -166.378    -412.303
  C     1077.241    -165.599    -414.627
  O     1076.060    -164.879    -414.235
  C     1078.210    -164.670    -415.384
  N     1078.362    -166.115    -420.228
  C     1077.417    -165.393    -419.553
  N     1076.310    -165.040    -420.255
  N     1077.529    -165.047    -418.285
  C     1078.681    -165.491    -417.724
  C     1079.696    -166.220    -418.279
  C     1079.568    -166.572    -419.689
  O     1080.424    -167.162    -420.369
  N     1080.682    -166.487    -417.370
  C     1080.239    -165.956    -416.248
  N     1079.004    -165.351    -416.387
  O     1082.123    -166.245    -410.751
  O     1083.190    -167.203    -412.876
  H     1075.556    -165.416    -413.591
  H     1082.133    -167.196    -410.544
  H     1078.238    -166.341    -421.192
  H     1080.778    -165.973    -415.291
  H     1077.687    -163.868    -415.895
  H     1076.918    -166.478    -415.191
  H     1076.029    -165.528    -421.085
  H     1078.782    -166.776    -413.688
  H     1075.608    -164.506    -419.752
  H     1078.160    -163.992    -412.541
  H     1080.634    -163.909    -412.268
  H     1079.875    -165.192    -411.286
  P     1077.168    -167.951    -412.001
  C     1075.617    -167.227    -410.031
  O     1075.855    -168.153    -411.076
  O     1078.361    -168.210    -410.967
  O     1077.280    -168.848    -413.194
  H     1078.554    -169.151    -410.899
  H     1074.718    -167.494    -409.515
  H     1075.514    -166.244    -410.442
  H     1076.439    -167.243    -409.346

 6  7  8  9  10  11  12  13  14  15  26  29  33  34 0
 6-311+G(2d,p)
 ****
 36  38  39  40  41 0
 6-311+G(2d,p)
 ****
 1  2  3  4  5  16  17  18  19  20  21  22  23  24  25 0
 3-21G
 ****
 27  28  30  31  32  35  37  42  43  44  45  46  47 0
 3-21G
 ****
 48  49 0
 3-21G
 ****


