%nproc=1
%NoSave
%Mem=1900MB
#P OB98/GEN NMR

erre ene a

0 1
  C     -288.549     840.728    -164.706
  O     -288.450     841.297    -165.988
  H     -287.756     839.980    -164.583
  H     -289.517     840.226    -164.587
  H     -288.431     841.487    -163.927
  P     -289.513     842.455    -166.340
  C     -292.096     842.730    -166.089
  O     -290.953     841.894    -165.896
  C     -293.201     841.950    -166.790
  O     -292.807     841.680    -168.156
  C     -293.471     840.583    -166.175
  O     -294.284     840.682    -165.006
  C     -294.174     839.868    -167.328
  O     -295.563     840.191    -167.391
  C     -293.449     840.439    -168.551
  N     -292.651     836.755    -171.995
  C     -293.725     837.539    -171.741
  N     -293.850     838.512    -170.805
  C     -292.705     838.652    -170.105
  C     -291.532     837.922    -170.259
  C     -291.540     836.937    -171.257
  N     -290.449     836.104    -171.490
  N     -290.589     838.324    -169.321
  C     -291.179     839.286    -168.644
  N     -292.464     839.519    -169.084
  O     -289.568     842.413    -167.947
  O     -289.168     843.818    -165.828
  H     -295.971     839.561    -168.022
  H     -288.956     843.076    -168.313
  H     -294.601     837.362    -172.353
  H     -290.737     839.836    -167.816
  H     -294.139     840.679    -169.365
  H     -294.088     838.780    -167.223
  H     -292.538     840.063    -165.928
  H     -294.100     842.565    -166.812
  H     -291.807     843.583    -166.719
  H     -292.436     843.098    -165.109
  H     -290.530     835.411    -172.205
  H     -289.656     836.166    -170.874
  P     -294.290     839.461    -163.971
  C     -296.057     837.740    -163.106
  O     -295.723     838.762    -164.050
  O     -294.302     840.181    -162.531
  O     -293.131     838.519    -164.105
  H     -293.411     840.195    -162.156
  H     -297.047     837.383    -163.302
  H     -296.012     838.141    -162.115
  H     -295.362     836.931    -163.195

 6  7  8  9  10  11  12  13  14  15  25  28  32  33  34  35 0
 6-311+G(2d,p)
 ****
 36  37  40 0
 6-311+G(2d,p)
 ****
 1  2  3  4  5  16  17  18  19  20  21  22  23  24 0
 3-21G
 ****
 26  27  29  30  31  38  39 41  42  43  44  45  46  47  48 0
 3-21G
 ****


