%nproc=1
%NoSave
%Mem=1900MB
#P OB98/GEN NMR

erre ene a

0 1
  C      275.398     322.477     126.115
  O      276.584     321.846     126.570
  P      277.979     322.641     126.648
  C      277.126     323.874     128.755
  O      277.658     323.989     127.448
  C      277.879     324.783     129.725
  O      277.143     324.847     130.972
  C      279.305     324.318     130.049
  O      280.108     325.494     130.217
  C      279.131     323.596     131.365
  O      280.341     323.505     132.107
  C      278.046     324.454     132.026
  N      277.335     323.739     133.088
  C      277.545     324.163     134.402
  O      278.317     325.085     134.656
  N      276.864     323.521     135.406
  C      276.119     322.502     135.135
  N      275.419     321.939     136.162
  C      275.954     321.956     133.776
  C      276.568     322.633     132.808
  O      278.658     322.838     125.333
  O      278.842     321.819     127.711
  H      280.172     322.976     132.908
  H      279.325     321.055     127.311
  H      275.344     321.083     133.602
  H      276.488     322.320     131.780
  H      278.481     325.377     132.422
  H      278.776     322.577     131.185
  H      279.739     323.697     129.259
  H      277.893     325.797     129.303
  H      275.415     322.444     137.042
  H      277.241     322.833     129.085
  H      274.595     321.379     135.989
  H      276.054     324.112     128.740
  P      281.096     325.916     129.028
  C      279.214     327.479     128.160
  O      280.217     326.534     127.840
  O      281.506     324.486     128.422
  O      282.328     326.669     129.423
  H      282.380     324.556     127.991
  H      278.726     327.796     127.235
  H      279.657     328.355     128.637
  H      278.468     327.034     128.819
  H      274.589     321.777     126.141
  H      275.540     322.822     125.112
  H      275.171     323.308     126.749

 3  4  5  6  7  8  9  10  11  12  13  23  27  28  29  30  32 0
 6-311+G(2d,p)
 ****
 34  35 0
 6-311+G(2d,p)
 ****
 1  2  14  15  16  17  18  19  20  21  22  24  25  26 0
 3-21G
 ****
 31  33  36  37  38  39  40  41  42  43  44  45  46 0
 3-21G
 ****


