%nproc=1
%NoSave
%Mem=1900MB
#P OB98/GEN NMR

erre ene a

0 1
  C       76.647     481.969    -332.221
  O       75.702     481.701    -331.207
  H       77.300     482.779    -331.887
  H       76.137     482.282    -333.133
  H       77.255     481.080    -332.420
  P       74.638     480.539    -331.499
  C       75.702     478.947    -329.749
  O       75.359     479.154    -331.114
  C       76.640     477.742    -329.607
  O       75.879     476.520    -329.861
  C       77.822     477.760    -330.587
  O       78.979     477.245    -329.918
  C       77.398     476.784    -331.663
  O       78.506     476.246    -332.373
  C       76.625     475.760    -330.831
  N       76.389     471.481    -333.466
  C       77.415     472.005    -332.699
  N       78.562     471.293    -332.628
  N       77.325     473.141    -332.065
  C       76.122     473.742    -332.205
  C       75.035     473.334    -332.936
  C       75.151     472.080    -333.654
  O       74.289     471.568    -334.363
  N       74.002     474.237    -332.847
  C       74.470     475.198    -332.067
  N       75.752     474.944    -331.647
  O       74.573     480.482    -333.098
  O       73.282     480.731    -330.886
  H       78.157     475.665    -333.082
  H       73.687     480.198    -333.402
  H       76.513     470.604    -333.942
  H       73.931     476.093    -331.776
  H       77.290     475.076    -330.289
  H       76.732     477.277    -332.387
  H       78.684     470.391    -333.062
  H       78.041     478.752    -330.985
  H       79.319     471.655    -332.062
  H       76.984     477.683    -328.573
  H       74.783     478.762    -329.178
  H       76.192     479.845    -329.356
  P       80.356     478.059    -330.069
  C       81.167     478.880    -327.739
  O       80.418     479.178    -328.914
  O       80.112     478.915    -331.399
  O       81.562     477.190    -330.191
  H       80.663     478.555    -332.119
  H       81.119     479.710    -327.065
  H       82.187     478.694    -328.004
  H       80.758     478.012    -327.266

 6  7  8  9  10  11  12  13  14  15  26  29  33  34 0
 6-311+G(2d,p)
 ****
 36  38  39  40  41 0
 6-311+G(2d,p)
 ****
 1  2  3  4  5  16  17  18  19  20  21  22  23  24  25 0
 3-21G
 ****
 27  28  30  31  32  35  37  42  43  44  45  46  47 0
 3-21G
 ****
 48  49 0
 3-21G
 ****


