%nproc=1
%NoSave
%Mem=1900MB
#P OB98/GEN NMR

erre ene a

0 1
  C      124.018     -41.227    -158.490
  O      125.413     -40.990    -158.697
  P      126.042     -39.664    -158.043
  C      124.676     -38.026    -159.555
  O      124.945     -38.510    -158.250
  C      124.867     -36.507    -159.624
  O      123.795     -35.842    -158.887
  C      126.200     -36.010    -159.056
  O      126.621     -34.914    -159.883
  C      125.821     -35.511    -157.674
  O      126.762     -34.575    -157.168
  C      124.426     -34.941    -157.953
  N      123.629     -34.778    -156.742
  C      123.973     -33.732    -155.896
  O      124.949     -33.010    -156.090
  N      123.184     -33.569    -154.788
  C      122.155     -34.386    -154.415
  O      121.478     -34.195    -153.411
  C      121.909     -35.543    -155.290
  C      122.647     -35.683    -156.394
  O      127.195     -39.311    -159.090
  O      126.500     -39.869    -156.636
  H      126.951     -39.496    -160.013
  H      126.338     -34.050    -156.459
  H      123.398     -32.796    -154.178
  H      121.140     -36.245    -154.995
  H      122.507     -36.535    -157.045
  H      124.505     -33.964    -158.448
  H      125.760     -36.354    -156.978
  H      126.974     -36.782    -159.046
  H      124.772     -36.202    -160.673
  H      123.645     -38.265    -159.832
  H      125.326     -38.540    -160.271
  P      127.521     -35.239    -161.178
  C      129.320     -36.438    -159.702
  O      128.443     -36.494    -160.806
  O      128.549     -34.008    -161.118
  O      126.773     -35.306    -162.467
  H      128.921     -33.864    -160.233
  H      129.669     -37.450    -159.481
  H      128.816     -36.043    -158.816
  H      130.184     -35.813    -159.945
  H      123.735     -42.137    -158.976
  H      123.454     -40.414    -158.898
  H      123.822     -41.307    -157.441

 3  4  5  6  7  8  9  10  11  12  13  24  28  29  30  31  32 0
 6-311+G(2d,p)
 ****
 33  34 0
 6-311+G(2d,p)
 ****
 1  2  14  15  16  17  18  19  20  21  22  23  25  26  27 0
 3-21G
 ****
 35  36  37  38  39  40  41  42  43  44  45 0
 3-21G
 ****


