%nproc=1
%NoSave
%Mem=1900MB
#P OB98/GEN NMR

erre ene a

0 1
  C      -34.592     287.909    -382.328
  O      -34.928     286.565    -382.049
  H      -35.509     288.504    -382.340
  H      -34.110     287.990    -383.306
  H      -33.929     288.304    -381.552
  P      -33.762     285.468    -382.051
  C      -32.719     285.740    -379.700
  O      -32.611     286.029    -381.090
  C      -31.623     286.460    -378.916
  O      -30.323     286.090    -379.414
  C      -31.687     287.981    -379.008
  O      -32.732     288.485    -378.202
  C      -30.281     288.343    -378.558
  O      -30.160     288.268    -377.129
  C      -29.449     287.227    -379.238
  N      -28.859     287.631    -380.510
  C      -27.606     288.250    -380.438
  O      -27.066     288.436    -379.347
  N      -27.007     288.652    -381.607
  C      -27.583     288.423    -382.744
  N      -26.935     288.839    -383.865
  C      -28.888     287.743    -382.865
  C      -29.470     287.391    -381.721
  O      -33.280     285.020    -383.398
  O      -34.376     284.253    -381.210
  H      -30.646     289.040    -376.778
  H      -34.788     283.599    -381.806
  H      -29.325     287.563    -383.835
  H      -30.429     286.888    -381.720
  H      -28.636     286.902    -378.576
  H      -30.003     289.357    -378.849
  H      -31.806     288.289    -380.051
  H      -31.682     286.126    -377.869
  H      -26.031     289.284    -383.732
  H      -32.611     284.655    -379.588
  H      -27.206     288.576    -384.800
  H      -33.705     286.028    -379.320
  P      -33.421     289.899    -378.513
  C      -35.813     288.971    -378.363
  O      -34.830     289.554    -379.203
  O      -32.574     290.866    -379.265
  O      -33.863     290.425    -377.068
  H      -33.083     290.783    -376.577
  H      -36.702     288.787    -378.929
  H      -36.035     289.639    -377.557
  H      -35.443     288.047    -377.969

 6  7  8  9  10  11  12  13  14  15  16  26  30  31  32  33  35 0
 6-311+G(2d,p)
 ****
 37  38 0
 6-311+G(2d,p)
 ****
 1  2  3  4  5  17  18  19  20  21  22  23  24  25 0
 3-21G
 ****
 27  28  29  34  36  39  40  41  42  43  44  45  46 0
 3-21G
 ****


