%nproc=1
%NoSave
%Mem=1900MB
#P OB98/GEN NMR

erre ene a

0 1
  C     -786.406    -953.585     626.762
  O     -786.284    -952.182     626.685
  H     -787.399    -953.836     627.136
  H     -785.659    -954.003     627.457
  H     -786.275    -954.041     625.774
  P     -784.906    -951.561     626.161
  C     -784.633    -950.262     628.382
  O     -784.714    -950.182     626.950
  C     -785.120    -948.953     628.994
  O     -784.195    -947.878     628.724
  C     -786.487    -948.482     628.477
  O     -787.544    -949.186     629.128
  C     -786.427    -947.013     628.838
  O     -786.675    -946.844     630.256
  C     -784.972    -946.664     628.513
  N     -785.806    -942.975     625.132
  C     -786.273    -943.121     626.435
  N     -787.085    -942.148     626.890
  N     -785.946    -944.110     627.213
  C     -785.164    -945.036     626.602
  C     -784.666    -945.017     625.313
  C     -784.982    -943.892     624.480
  O     -784.575    -943.704     623.348
  N     -783.953    -946.166     625.039
  C     -784.000    -946.849     626.171
  N     -784.736    -946.207     627.140
  O     -784.752    -951.441     624.674
  O     -783.788    -952.513     626.790
  H     -785.876    -947.201     630.715
  H     -783.547    -953.238     626.189
  H     -786.098    -942.191     624.564
  H     -783.515    -947.805     626.330
  H     -784.559    -945.898     629.176
  H     -787.174    -946.415     628.297
  H     -787.605    -941.532     626.250
  H     -786.545    -948.580     627.390
  H     -787.487    -942.252     627.808
  H     -785.152    -949.093     630.083
  H     -783.582    -950.438     628.634
  H     -785.219    -951.094     628.748
  P     -788.950    -949.461     628.393
  C     -790.257    -948.634     630.439
  O     -789.981    -949.713     629.561
  O     -788.900    -950.517     627.344
  O     -789.376    -948.030     627.853
  H     -789.021    -947.829     626.941
  H     -790.968    -948.946     631.176
  H     -790.659    -947.814     629.881
  H     -789.353    -948.328     630.923

 6  7  8  9  10  11  12  13  14  15  26  29  33  34 0
 6-311+G(2d,p)
 ****
 36  38  39  40  41 0
 6-311+G(2d,p)
 ****
 1  2  3  4  5  16  17  18  19  20  21  22  23  24  25 0
 3-21G
 ****
 27  28  30  31  32  35  37  42  43  44  45  46  47 0
 3-21G
 ****
 48  49 0
 3-21G
 ****


