%nproc=1
%NoSave
%Mem=1900MB
#P OB98/GEN NMR

erre ene a

0 1
  C      502.832     145.641    -427.526
  O      502.448     146.769    -426.765
  H      501.956     145.180    -427.991
  H      503.520     145.967    -428.310
  H      503.340     144.912    -426.889
  P      501.351     146.516    -425.621
  C      501.059     147.251    -423.151
  O      501.792     147.407    -424.358
  C      501.975     146.737    -422.045
  O      502.232     145.328    -422.222
  C      503.353     147.393    -421.996
  O      503.310     148.672    -421.376
  C      504.115     146.386    -421.153
  O      503.818     146.597    -419.760
  C      503.518     145.045    -421.620
  N      506.624     141.022    -422.387
  C      505.949     141.446    -421.290
  N      505.154     142.526    -421.160
  C      505.068     143.205    -422.319
  C      505.697     142.897    -423.506
  C      506.513     141.751    -423.523
  N      507.210     141.343    -424.634
  N      505.363     143.812    -424.484
  C      504.544     144.658    -423.896
  N      504.343     144.338    -422.579
  O      501.651     145.017    -425.141
  O      499.930     146.676    -426.053
  H      504.364     145.960    -419.261
  H      500.805     144.579    -424.914
  H      506.058     140.832    -420.404
  H      504.082     145.510    -424.379
  H      503.330     144.372    -420.771
  H      505.196     146.455    -421.274
  H      503.799     147.447    -422.996
  H      501.450     146.865    -421.088
  H      500.249     146.536    -423.308
  H      507.611     140.419    -424.643
  H      507.115     141.891    -425.490
  H      500.631     148.223    -422.873
  P      504.633     149.580    -421.459
  C      505.146     151.962    -420.568
  O      504.163     151.063    -421.069
  O      504.900     149.687    -423.037
  O      505.817     149.045    -420.729
  H      505.851     149.854    -423.204
  H      504.690     152.906    -420.353
  H      505.914     152.096    -421.301
  H      505.574     151.560    -419.673

 6  7  8  9  10  11  12  13  14  15  25  28  32  33  34  35 0
 6-311+G(2d,p)
 ****
 36  39  40 0
 6-311+G(2d,p)
 ****
 1  2  3  4  5  16  17  18  19  20  21  22  23  24 0
 3-21G
 ****
 26  27  29  30  31  37  38  41  42  43  44  45  46  47  48 0
 3-21G
 ****


