%nproc=1
%NoSave
%Mem=1900MB
#P OB98/GEN NMR

erre ene a

0 1
  C       91.203    -100.826      10.083
  O       91.894     -99.667       9.657
  P       93.368     -99.351      10.190
  C       94.416    -100.538       8.175
  O       94.349    -100.476       9.595
  C       95.861    -100.646       7.692
  O       96.423    -101.904       8.157
  C       96.031    -100.604       6.167
  O       97.273     -99.943       5.908
  C       96.154    -102.076       5.803
  O       96.777    -102.285       4.543
  C       96.952    -102.585       6.999
  N       99.091    -107.120       6.003
  C       99.430    -105.867       5.634
  N       98.793    -104.712       5.919
  C       97.703    -104.943       6.667
  C       97.215    -106.166       7.094
  C       97.973    -107.299       6.745
  N       97.662    -108.581       7.142
  N       96.034    -105.996       7.794
  C       95.819    -104.697       7.788
  N       96.835    -104.016       7.175
  O       93.482     -99.144      11.663
  O       93.797     -98.036       9.386
  H       96.423    -101.631       3.911
  H       93.771     -97.261       9.982
  H      100.333    -105.778       5.037
  H       94.954    -104.202       8.207
  H       98.018    -102.340       6.918
  H       95.156    -102.530       5.767
  H       95.211    -100.109       5.640
  H       96.440     -99.841       8.163
  H       93.969     -99.621       7.777
  H       98.343    -109.299       6.951
  H       96.999    -108.713       7.905
  H       93.832    -101.391       7.813
  P       97.467     -99.109       4.552
  C       96.520     -97.094       5.814
  O       96.457     -97.870       4.632
  O       97.404     -99.910       3.294
  O       98.903     -98.418       4.741
  H       99.238     -98.120       3.874
  H       95.957     -97.594       6.607
  H       96.071     -96.115       5.622
  H       97.554     -96.953       6.140
  H       90.240    -100.858       9.618
  H       91.085    -100.800      11.146
  H       91.761    -101.696       9.807

 3  4  5  6  7  8  9  10  11  12  22  25  29  30  31  32 0
 6-311+G(2d,p)
 ****
 33  36  37 0
 6-311+G(2d,p)
 ****
 1  2  13  14  15  16  17  18  19  20  21  23  24  26 0
 3-21G
 ****
 27  28  34  35  38  39  40  41  42  43  44  45  46  47  48 0
 3-21G
 ****


