%nproc=1
%NoSave
%Mem=1900MB
#P OB98/GEN NMR

erre ene a

0 1
  C     -200.953     304.759    -113.054
  O     -199.918     304.656    -112.070
  P     -199.290     305.933    -111.325
  C     -197.143     306.019    -112.753
  O     -198.319     306.711    -112.335
  C     -196.155     306.958    -113.447
  O     -196.715     307.468    -114.671
  C     -195.762     308.188    -112.639
  O     -194.840     307.857    -111.616
  C     -195.203     309.092    -113.735
  O     -193.840     308.758    -114.037
  C     -196.129     308.761    -114.924
  N     -197.148     309.776    -115.141
  C     -197.087     310.475    -116.349
  O     -196.177     310.261    -117.148
  N     -198.057     311.416    -116.615
  C     -198.950     311.687    -115.720
  N     -199.887     312.624    -116.041
  C     -198.996     311.041    -114.394
  C     -198.073     310.103    -114.180
  O     -198.672     305.623    -110.001
  O     -200.519     306.945    -111.142
  H     -193.849     307.835    -114.356
  H     -200.378     307.472    -110.330
  H     -199.740     311.316    -113.666
  H     -198.039     309.570    -113.234
  H     -195.540     308.650    -115.844
  H     -195.220     310.151    -113.455
  H     -196.659     308.648    -112.209
  H     -195.261     306.372    -113.705
  H     -199.834     313.042    -116.958
  H     -197.441     305.227    -113.450
  H     -200.627     312.905    -115.417
  H     -196.675     305.558    -111.875
  P     -195.284     307.961    -110.081
  C     -194.699     310.457    -109.988
  O     -195.705     309.477    -109.800
  O     -194.332     307.369    -109.094
  O     -196.694     307.194    -110.044
  H     -196.802     306.773    -109.173
  H     -195.180     311.424    -110.163
  H     -194.068     310.213    -110.847
  H     -194.084     310.521    -109.088
  H     -201.208     303.782    -113.407
  H     -200.609     305.355    -113.873
  H     -201.816     305.217    -112.617

 3  4  5  6  7  8  9  10  11  12  13  23  27  28  29  30  32 0
 6-311+G(2d,p)
 ****
 34  35 0
 6-311+G(2d,p)
 ****
 1  2  14  15  16  17  18  19  20  21  22  24  25  26 0
 3-21G
 ****
 31  33  36  37  38  39  40  41  42  43  44  45  46 0
 3-21G
 ****


