%nproc=1
%NoSave
%Mem=1900MB
#P OB98/GEN NMR

erre ene a

0 1
  C      -34.709    -673.287     324.786
  O      -34.758    -671.894     325.126
  P      -33.462    -670.951     325.009
  C      -32.514    -671.408     327.352
  O      -32.277    -671.498     325.953
  C      -31.308    -671.854     328.205
  O      -31.529    -671.559     329.612
  C      -30.980    -673.353     328.110
  O      -29.568    -673.461     328.283
  C      -31.712    -673.911     329.326
  O      -31.239    -675.193     329.728
  C      -31.452    -672.801     330.340
  N      -32.439    -674.580     335.044
  C      -31.312    -674.590     334.293
  N      -31.116    -674.063     333.069
  C      -32.225    -673.440     332.633
  C      -33.442    -673.344     333.290
  C      -33.537    -673.956     334.552
  N      -34.692    -673.984     335.293
  N      -34.363    -672.651     332.517
  C      -33.703    -672.352     331.409
  N      -32.411    -672.806     331.434
  O      -33.754    -669.490     325.181
  O      -32.907    -671.220     323.526
  H      -31.570    -675.849     329.086
  H      -32.698    -670.369     323.105
  H      -30.454    -675.095     334.742
  H      -34.124    -671.826     330.547
  H      -30.451    -672.880     330.771
  H      -32.775    -674.007     329.090
  H      -31.300    -673.814     327.169
  H      -30.452    -671.258     327.891
  H      -33.387    -672.029     327.607
  H      -34.682    -674.534     336.147
  H      -35.550    -673.640     334.886
  H      -32.765    -670.364     327.601
  P      -28.573    -673.605     327.034
  C      -29.028    -676.110     326.767
  O      -29.118    -674.837     326.162
  O      -27.124    -673.687     327.382
  O      -28.888    -672.336     326.106
  H      -28.143    -672.179     325.492
  H      -27.995    -676.468     326.727
  H      -29.667    -676.817     326.220
  H      -29.360    -676.076     327.814
  H      -35.674    -673.725     324.935
  H      -33.993    -673.781     325.409
  H      -34.424    -673.394     323.760

 3  4  5  6  7  8  9  10  11  12  22  25  29  30  31  32 0
 6-311+G(2d,p)
 ****
 33  36  37 0
 6-311+G(2d,p)
 ****
 1  2  13  14  15  16  17  18  19  20  21  23  24  26 0
 3-21G
 ****
 27  28  34  35  38  39  40  41  42  43  44  45  46  47  48 0
 3-21G
 ****


