%nproc=1
%NoSave
%Mem=1900MB
#P OB98/GEN NMR

erre ene a

0 1
  C       25.388      52.655      24.110
  O       24.973      52.142      22.861
  H       24.937      52.050      24.901
  H       25.058      53.690      24.233
  H       26.475      52.595      24.203
  P       25.407      52.932      21.532
  C       27.441      51.381      21.121
  O       26.995      52.691      21.431
  C       28.794      51.438      20.416
  O       29.298      50.111      20.155
  C       28.778      52.121      19.052
  O       28.669      53.532      19.129
  C       30.127      51.670      18.515
  O       31.173      52.430      19.144
  C       30.158      50.194      18.983
  N       29.708      49.259      17.953
  C       30.700      48.702      17.136
  O       31.883      49.000      17.296
  N       30.324      47.847      16.129
  C       29.068      47.586      15.940
  N       28.747      46.770      14.898
  C       27.993      48.137      16.787
  C       28.377      48.961      17.760
  O       24.970      54.358      21.438
  O       24.867      52.020      20.333
  H       31.184      52.177      20.085
  H       25.101      52.473      19.487
  H       26.961      47.894      16.582
  H       27.644      49.419      18.414
  H       31.166      49.909      19.303
  H       30.229      51.805      17.435
  H       27.991      51.702      18.415
  H       29.503      51.922      21.100
  H       29.505      46.446      14.314
  H       26.687      50.905      20.485
  H       27.805      46.744      14.521
  H       27.554      50.795      22.037
  P       27.951      54.298      17.912
  C       25.941      54.908      19.453
  O       26.381      54.315      18.243
  O       28.073      53.250      16.712
  O       28.518      55.638      17.566
  H       28.865      53.429      16.167
  H       24.875      54.836      19.519
  H       26.231      55.938      19.471
  H       26.385      54.398      20.282

 6  7  8  9  10  11  12  13  14  15  16  26  30  31  32  33  35 0
 6-311+G(2d,p)
 ****
 37  38 0
 6-311+G(2d,p)
 ****
 1  2  3  4  5  17  18  19  20  21  22  23  24  25 0
 3-21G
 ****
 27  28  29  34  36  39  40  41  42  43  44  45  46 0
 3-21G
 ****


