%nproc=1
%NoSave
%Mem=1900MB
#P OB98/GEN NMR

erre ene a

0 1
  C      348.374      81.677     481.156
  O      347.762      82.070     479.940
  P      348.683      82.800     478.846
  C      347.678      81.676     476.717
  O      348.795      81.814     477.587
  C      347.786      80.360     475.943
  O      347.571      79.239     476.829
  C      346.750      80.217     474.840
  O      347.116      80.955     473.684
  C      346.739      78.709     474.619
  O      347.807      78.311     473.747
  C      346.977      78.180     476.047
  N      345.755      77.667     476.663
  C      345.219      76.516     476.094
  O      345.721      75.963     475.112
  N      344.067      76.046     476.663
  C      343.384      76.630     477.688
  O      342.323      76.190     478.116
  C      343.980      77.862     478.235
  C      345.112      78.320     477.700
  O      350.148      82.762     479.492
  O      348.260      84.190     478.508
  H      347.617      77.390     473.472
  H      350.633      83.576     479.259
  H      343.680      75.200     476.281
  H      343.461      78.352     479.048
  H      345.563      79.233     478.078
  H      347.716      77.368     476.031
  H      345.805      78.363     474.162
  H      345.764      80.531     475.209
  H      348.803      80.281     475.532
  H      347.661      82.516     476.017
  H      346.758      81.700     477.310
  P      345.926      81.642     472.853
  C      346.141      83.858     474.220
  O      345.335      82.770     473.825
  O      344.838      80.466     472.865
  O      346.346      82.091     471.494
  H      344.876      79.937     473.681
  H      346.817      84.170     473.415
  H      346.730      83.575     475.100
  H      345.496      84.698     474.487
  H      347.647      81.207     481.785
  H      348.770      82.539     481.651
  H      349.167      80.988     480.950

 3  4  5  6  7  8  9  10  11  12  13  23  28  29  30  31  32 0
 6-311+G(2d,p)
 ****
 33  34 0
 6-311+G(2d,p)
 ****
 1  2  14  15  16  17  18  19  20  21  22  24  25  26 0
 3-21G
 ****
 27  35  36  37  38  39  40  41  42  43  44  45 0
 3-21G
 ****


