%nproc=1
%NoSave
%Mem=1900MB
#P OB98/GEN NMR

erre ene a

0 1
  C      -36.182      19.444      21.774
  O      -36.238      19.384      20.366
  H      -36.243      18.428      22.171
  H      -37.024      20.023      22.159
  H      -35.240      19.894      22.099
  P      -36.137      20.775      19.568
  C      -33.573      20.843      20.008
  O      -34.617      20.842      19.044
  C      -32.335      20.133      19.455
  O      -32.644      18.735      19.242
  C      -31.849      20.712      18.126
  O      -30.423      20.812      18.147
  C      -32.302      19.699      17.091
  O      -31.483      19.715      15.923
  C      -32.279      18.392      17.892
  N      -33.190      17.396      17.332
  C      -32.969      17.015      16.006
  O      -32.050      17.523      15.361
  N      -33.821      16.112      15.425
  C      -34.844      15.673      16.089
  N      -35.665      14.797      15.451
  C      -35.144      16.084      17.474
  C      -34.283      16.934      18.030
  O      -36.181      21.863      20.738
  O      -37.169      20.978      18.509
  H      -31.672      18.899      15.410
  H      -36.341      22.770      20.381
  H      -36.018      15.703      17.981
  H      -34.424      17.292      19.044
  H      -31.266      17.969      17.913
  H      -33.329      19.930      16.782
  H      -32.266      21.696      17.913
  H      -31.547      20.167      20.216
  H      -35.434      14.546      14.498
  H      -33.921      20.327      20.908
  H      -36.505      14.415      15.860
  H      -33.319      21.877      20.262
  P      -29.799      22.106      17.430
  C      -30.773      24.094      18.778
  O      -29.654      23.253      18.545
  O      -30.988      22.625      16.495
  O      -28.553      21.819      16.659
  H      -30.852      22.332      15.575
  H      -30.532      24.805      19.541
  H      -31.606      23.501      19.093
  H      -31.025      24.611      17.876

 6  7  8  9  10  11  12  13  14  15  16  26  30  31  32  33  35 0
 6-311+G(2d,p)
 ****
 37  38 0
 6-311+G(2d,p)
 ****
 1  2  3  4  5  17  18  19  20  21  22  23  24  25 0
 3-21G
 ****
 27  28  29  34  36  39  40  41  42  43  44  45  46 0
 3-21G
 ****


