%nproc=1
%NoSave
%Mem=1900MB
#P OB98/GEN NMR

erre ene a

0 1
  C      663.076     575.404      95.344
  O      662.060     575.798      94.417
  P      661.188     574.651      93.710
  C      661.775     575.303      91.208
  O      660.807     575.099      92.220
  C      661.086     575.846      89.946
  O      660.188     574.843      89.411
  C      660.254     577.099      90.198
  O      661.035     578.273      90.112
  C      659.193     576.995      89.119
  O      659.729     577.400      87.846
  C      658.907     575.465      89.135
  N      657.913     574.953      90.096
  C      656.623     575.494      90.136
  O      656.244     576.416      89.400
  N      655.763     574.953      91.052
  C      655.987     573.825      91.793
  O      655.149     573.344      92.557
  C      657.296     573.195      91.614
  C      658.196     573.789      90.803
  O      659.788     574.720      94.491
  O      661.789     573.290      93.762
  H      659.000     577.355      87.199
  H      659.637     573.883      94.972
  H      654.853     575.379      91.131
  H      657.496     572.288      92.158
  H      659.156     573.334      90.669
  H      658.573     575.141      88.145
  H      658.354     577.660      89.323
  H      659.763     577.035      91.174
  H      661.858     576.050      89.196
  H      662.305     574.370      90.979
  H      662.531     576.022      91.563
  P      661.790     578.834      91.416
  C      660.117     580.785      91.511
  O      661.479     580.420      91.444
  O      663.221     578.456      91.553
  O      660.898     578.290      92.620
  H      661.269     577.452      92.995
  H      660.042     581.857      91.676
  H      659.621     580.260      92.324
  H      659.615     580.555      90.560
  H      663.566     576.275      95.728
  H      663.791     574.782      94.847
  H      662.631     574.860      96.151

 3  4  5  6  7  8  9  10  11  12  13  23  28  29  30  31  32 0
 6-311+G(2d,p)
 ****
 33  34 0
 6-311+G(2d,p)
 ****
 1  2  14  15  16  17  18  19  20  21  22  24  25  26  27 0
 3-21G
 ****
 35  36  37  38  39  40  41  42  43  44  45 0
 3-21G
 ****


