%nproc=1
%NoSave
%Mem=1900MB
#P OB98/GEN NMR

erre ene a

0 1
  C      246.105    -288.863     210.525
  O      246.968    -288.122     211.374
  H      245.702    -289.709     211.091
  H      246.670    -289.250     209.669
  H      245.283    -288.234     210.184
  P      247.643    -286.808     210.747
  C      248.071    -285.976     213.179
  O      248.611    -286.218     211.886
  C      249.029    -285.117     213.995
  O      250.259    -285.853     214.217
  C      249.449    -283.816     213.309
  O      248.460    -282.814     213.421
  C      250.732    -283.495     214.060
  O      250.466    -282.813     215.295
  C      251.325    -284.881     214.335
  N      256.118    -283.761     213.004
  C      255.325    -283.301     214.007
  N      254.060    -283.675     214.299
  C      253.633    -284.614     213.446
  C      254.317    -285.169     212.379
  C      255.627    -284.703     212.164
  N      256.418    -285.136     211.120
  N      253.519    -286.076     211.704
  C      252.372    -286.075     212.358
  N      252.397    -285.217     213.420
  O      246.429    -285.768     210.708
  O      248.273    -286.990     209.407
  H      250.215    -281.892     215.056
  H      246.009    -285.785     209.826
  H      255.768    -282.540     214.638
  H      251.507    -286.675     212.100
  H      251.727    -284.965     215.359
  H      251.379    -282.839     213.465
  H      249.689    -284.012     212.258
  H      248.572    -284.914     214.971
  H      247.915    -286.935     213.687
  H      247.098    -285.469     213.067
  H      257.339    -284.746     211.017
  H      256.019    -285.768     210.426
  P      247.952    -282.083     212.089
  C      245.382    -282.197     212.491
  O      246.547    -281.384     212.419
  O      247.550    -283.302     211.128
  O      248.955    -281.182     211.456
  H      248.263    -283.476     210.479
  H      244.534    -281.585     212.718
  H      245.507    -282.932     213.258
  H      245.229    -282.685     211.551

 6  7  8  9  10  11  12  13  14  15  25  28  32  33  34  35 0
 6-311+G(2d,p)
 ****
 36  37  40 0
 6-311+G(2d,p)
 ****
 1  2  3  4  5  16  17  18  19  20  21  22  23  24 0
 3-21G
 ****
 26  27  29  30  31  38  39 41  42  43  44  45  46  47  48 0
 3-21G
 ****


