%nproc=1
%NoSave
%Mem=1900MB
#P OB98/GEN NMR

erre ene a

0 1
  C       37.169     331.476    -417.436
  O       36.470     332.701    -417.345
  H       38.239     331.675    -417.344
  H       36.979     331.002    -418.403
  H       36.861     330.809    -416.628
  P       34.881     332.638    -417.571
  C       34.318     333.684    -415.248
  O       34.294     332.531    -416.078
  C       32.910     334.254    -415.110
  O       31.971     333.213    -414.754
  C       32.762     335.316    -414.022
  O       33.259     336.587    -414.406
  C       31.252     335.323    -413.869
  O       30.655     336.007    -414.986
  C       30.946     333.810    -413.912
  N       30.943     333.187    -412.585
  C       29.696     333.027    -411.971
  O       28.667     333.398    -412.531
  N       29.648     332.478    -410.711
  C       30.741     332.101    -410.126
  N       30.628     331.568    -408.879
  C       32.073     332.240    -410.741
  C       32.101     332.783    -411.956
  O       34.647     331.164    -418.145
  O       34.292     333.728    -418.401
  H       30.979     336.927    -414.953
  H       33.678     330.966    -418.182
  H       32.958     331.924    -410.208
  H       33.045     332.916    -412.473
  H       29.978     333.617    -414.390
  H       30.910     335.830    -412.967
  H       33.211     334.990    -413.078
  H       32.610     334.645    -416.089
  H       29.708     331.541    -408.459
  H       34.981     334.424    -415.707
  H       31.428     331.386    -408.286
  H       34.704     333.426    -414.257
  P       33.189     337.763    -413.316
  C       35.396     337.109    -412.097
  O       33.982     337.246    -412.022
  O       31.662     337.738    -412.848
  O       33.599     339.112    -413.819
  H       31.345     338.637    -412.636
  H       35.771     336.757    -411.159
  H       35.835     338.058    -412.323
  H       35.646     336.409    -412.866

 6  7  8  9  10  11  12  13  14  15  16  26  30  31  32  33  35 0
 6-311+G(2d,p)
 ****
 37  38 0
 6-311+G(2d,p)
 ****
 1  2  3  4  5  17  18  19  20  21  22  23  24  25 0
 3-21G
 ****
 27  28  29  34  36  39  40  41  42  43  44  45  46 0
 3-21G
 ****


