%nproc=1
%NoSave
%Mem=1900MB
#P OB98/GEN NMR

erre ene a

0 1
  C     -150.390      57.678    -100.521
  O     -149.066      57.582    -101.007
  H     -150.568      58.702    -100.181
  H     -150.529      56.999     -99.675
  H     -151.105      57.437    -101.312
  P     -148.615      56.158    -101.597
  C     -148.905      57.053    -104.023
  O     -149.252      56.057    -103.066
  C     -147.959      56.460    -105.063
  O     -148.566      55.287    -105.655
  C     -147.646      57.391    -106.230
  O     -146.668      58.359    -105.890
  C     -147.178      56.399    -107.284
  O     -145.795      56.059    -107.114
  C     -148.056      55.172    -107.004
  N     -149.315      53.809    -111.754
  C     -148.146      53.748    -111.075
  N     -147.900      54.117    -109.798
  C     -149.017      54.579    -109.216
  C     -150.275      54.709    -109.783
  C     -150.408      54.293    -111.120
  N     -151.586      54.390    -111.821
  N     -151.159      55.268    -108.881
  C     -150.454      55.467    -107.786
  N     -149.156      55.062    -107.942
  O     -149.482      55.125    -100.733
  O     -147.152      55.870    -101.514
  H     -145.592      55.376    -107.783
  H     -148.955      54.808     -99.976
  H     -147.299      53.354    -111.629
  H     -150.827      55.905    -106.868
  H     -147.489      54.235    -107.054
  H     -147.290      56.805    -108.292
  H     -148.565      57.878    -106.583
  H     -147.034      56.146    -104.558
  H     -148.407      57.885    -103.512
  H     -149.820      57.418    -104.498
  H     -151.603      54.092    -112.784
  H     -152.382      54.848    -111.390
  P     -146.609      59.717    -106.735
  C     -147.481      60.990    -104.640
  O     -147.601      60.768    -106.038
  O     -147.355      59.332    -108.099
  O     -145.230      60.237    -106.980
  H     -146.707      59.147    -108.800
  H     -148.207      61.712    -104.330
  H     -146.499      61.354    -104.420
  H     -147.646      60.071    -104.117

 6  7  8  9  10  11  12  13  14  15  25  28  32  33  34  35 0
 6-311+G(2d,p)
 ****
 36  37  40 0
 6-311+G(2d,p)
 ****
 1  2  3  4  5  16  17  18  19  20  21  22  23  24 0
 3-21G
 ****
 26  27  29  30  31  38  39 41  42  43  44  45  46  47  48 0
 3-21G
 ****


