%nproc=1
%NoSave
%Mem=1900MB
#P OB98/GEN NMR

erre ene a

0 1
  C      199.299     311.930     678.711
  O      200.494     311.829     677.956
  P      200.852     310.395     677.323
  C      201.827     309.556     679.599
  O      202.060     309.801     678.208
  C      203.148     309.264     680.300
  O      203.778     308.098     679.732
  C      204.190     310.372     680.181
  O      203.967     311.420     681.116
  C      205.461     309.624     680.534
  O      205.578     309.472     681.958
  C      205.216     308.259     679.868
  N      209.639     308.108     677.418
  C      209.376     308.036     678.773
  N      210.446     307.969     679.590
  N      208.170     308.021     679.282
  C      207.189     308.088     678.340
  C      207.324     308.158     676.966
  C      208.658     308.189     676.430
  O      208.967     308.304     675.245
  N      206.113     308.211     676.349
  C      205.228     308.170     677.335
  N      205.843     308.144     678.563
  O      201.560     310.764     675.943
  O      199.687     309.496     677.126
  H      205.558     310.374     682.335
  H      201.580     310.000     675.353
  H      210.590     308.108     677.072
  H      204.152     308.182     677.218
  H      205.580     307.429     680.496
  H      206.361     310.141     680.187
  H      211.396     308.041     679.266
  H      204.248     310.746     679.157
  H      210.293     307.983     680.592
  H      202.922     309.063     681.358
  H      201.152     308.709     679.701
  H      201.348     310.438     680.032
  P      203.609     312.872     680.507
  C      205.978     313.056     679.457
  O      205.015     313.609     680.328
  O      202.912     313.625     681.744
  O      202.727     312.836     679.296
  H      202.313     314.313     681.423
  H      206.741     313.809     679.259
  H      205.521     312.766     678.506
  H      206.450     312.189     679.928
  H      199.187     312.932     679.069
  H      199.344     311.257     679.542
  H      198.464     311.677     678.092

 3  4  5  6  7  8  9  10  11  12  23  26  30  31 0
 6-311+G(2d,p)
 ****
 33  35  36  37  38 0
 6-311+G(2d,p)
 ****
 1  2  13  14  15  16  17  18  19  20  21  22  24  25 0
 3-21G
 ****
 27  28  29  32  34  39  40  41  42  43  44  45  46  47  48  49 0
 3-21G
 ****


