%nproc=1
%NoSave
%Mem=1900MB
#P OB98/GEN NMR

erre ene a

0 1
  C     -124.946     130.709     -17.181
  O     -125.507     131.201     -18.384
  H     -124.321     131.477     -16.715
  H     -125.756     130.449     -16.492
  H     -124.350     129.813     -17.381
  P     -124.477     131.673     -19.521
  C     -125.245     129.716     -21.056
  O     -124.167     130.354     -20.384
  C     -124.922     129.621     -22.546
  O     -123.746     128.804     -22.751
  C     -126.027     128.971     -23.374
  O     -127.060     129.883     -23.712
  C     -125.244     128.543     -24.604
  O     -124.994     129.688     -25.444
  C     -123.929     128.048     -23.978
  N     -122.783     123.363     -25.706
  C     -122.598     124.589     -26.240
  N     -122.913     125.792     -25.707
  C     -123.462     125.642     -24.492
  C     -123.704     124.453     -23.815
  C     -123.343     123.268     -24.478
  N     -123.555     122.013     -23.952
  N     -124.300     124.704     -22.592
  C     -124.398     126.017     -22.527
  N     -123.934     126.629     -23.663
  O     -123.110     131.910     -18.723
  O     -124.894     132.857     -20.330
  H     -124.363     129.402     -26.135
  H     -122.477     132.411     -19.274
  H     -122.144     124.615     -27.230
  H     -124.804     126.571     -21.688
  H     -123.057     128.235     -24.619
  H     -125.777     127.808     -25.211
  H     -126.428     128.079     -22.880
  H     -124.695     130.631     -22.917
  H     -126.155     130.309     -20.914
  H     -123.402     121.224     -24.561
  H     -124.103     121.927     -23.104
  H     -125.397     128.717     -20.638
  P     -128.518     129.272     -24.003
  C     -129.546     130.128     -21.770
  O     -129.192     129.002     -22.568
  O     -128.191     127.801     -24.541
  O     -129.339     130.060     -24.970
  H     -128.855     127.512     -25.191
  H     -129.980     129.792     -20.852
  H     -130.254     130.732     -22.299
  H     -128.670     130.706     -21.560

 6  7  8  9  10  11  12  13  14  15  25  28  32  33  34  35 0
 6-311+G(2d,p)
 ****
 36  39  40 0
 6-311+G(2d,p)
 ****
 1  2  3  4  5  16  17  18  19  20  21  22  23  24 0
 3-21G
 ****
 26  27  29  30  31  37  38  41  42  43  44  45  46  47 0
 3-21G
 ****
 48 0
 3-21G
 ****


