%nproc=1
%NoSave
%Mem=1900MB
#P OB98/GEN NMR

erre ene a

0 1
  C       95.289    -295.312    -241.452
  O       94.288    -294.411    -241.883
  H       96.258    -294.811    -241.513
  H       95.304    -296.193    -242.098
  H       95.109    -295.611    -240.416
  P       92.778    -294.955    -241.854
  C       90.640    -293.830    -242.832
  O       92.003    -294.174    -243.022
  C       90.119    -293.029    -244.030
  O       90.897    -291.799    -244.146
  C       90.252    -293.761    -245.376
  O       89.203    -293.294    -246.239
  C       91.596    -293.248    -245.876
  O       91.769    -293.542    -247.244
  C       91.467    -291.781    -245.473
  N       95.110    -289.682    -248.384
  C       93.929    -290.260    -248.699
  N       93.005    -290.786    -247.868
  C       93.390    -290.653    -246.586
  C       94.553    -290.076    -246.112
  C       95.447    -289.577    -247.078
  N       96.651    -288.988    -246.762
  N       94.600    -290.122    -244.729
  C       93.478    -290.718    -244.379
  N       92.719    -291.063    -245.464
  O       92.185    -294.319    -240.508
  O       92.630    -296.438    -241.884
  H       92.630    -293.200    -247.566
  H       92.257    -294.961    -239.778
  H       93.696    -290.313    -249.760
  H       93.170    -290.933    -243.358
  H       90.775    -291.240    -246.128
  H       92.420    -293.733    -245.339
  H       90.193    -294.850    -245.284
  H       89.079    -292.729    -243.840
  H       90.557    -293.227    -241.918
  H       90.044    -294.741    -242.716
  H       97.238    -288.672    -247.514
  H       96.925    -288.919    -245.793
  P       87.833    -294.132    -246.334
  C       85.461    -293.240    -246.984
  O       86.833    -293.368    -247.329
  O       87.166    -293.839    -244.905
  O       87.985    -295.602    -246.557
  H       86.594    -294.587    -244.654
  H       84.947    -292.707    -247.756
  H       85.374    -292.704    -246.062
  H       85.029    -294.213    -246.874

 6  7  8  9  10  11  12  13  14  15  25  28  32  33  34  35 0
 6-311+G(2d,p)
 ****
 36  37  40 0
 6-311+G(2d,p)
 ****
 1  2  3  4  5  16  17  18  19  20  21  22  23  24 0
 3-21G
 ****
 26  27  29  30  31  38  39 41  42  43  44  45  46  47  48 0
 3-21G
 ****


