%nproc=1
%NoSave
%Mem=1900MB
#P OB98/GEN NMR

erre ene a

0 1
  C        5.510     153.997     140.622
  O        5.227     153.404     141.875
  H        6.007     154.955     140.792
  H        4.582     154.174     140.071
  H        6.175     153.351     140.042
  P        4.513     151.967     141.842
  C        2.371     152.968     142.901
  O        2.945     152.307     141.780
  C        1.141     152.210     143.396
  O        0.170     152.079     142.342
  C        1.429     150.792     143.874
  O        1.938     150.798     145.197
  C        0.035     150.184     143.808
  O       -0.724     150.579     144.966
  C       -0.557     150.837     142.545
  N       -1.559     146.290     140.383
  C       -1.622     146.708     141.666
  N       -1.302     147.916     142.174
  C       -0.872     148.742     141.205
  C       -0.752     148.456     139.852
  C       -1.127     147.164     139.445
  N       -1.069     146.745     138.133
  N       -0.276     149.549     139.162
  C       -0.161     150.496     140.072
  N       -0.475     150.046     141.330
  O        4.941     151.006     142.897
  O        4.822     151.509     140.338
  H       -1.600     150.153     144.904
  H        4.756     152.266     139.729
  H       -1.984     145.974     142.381
  H        0.128     151.522     139.872
  H       -1.614     151.093     142.680
  H        0.059     149.091     143.801
  H        2.085     150.259     143.178
  H        0.678     152.806     144.192
  H        2.095     153.995     142.639
  H       -1.192     145.761     137.954
  H       -0.633     147.357     137.458
  H        3.133     153.004     143.686
  P        3.057     149.740     145.647
  C        1.389     148.685     147.297
  O        2.273     148.455     146.205
  O        4.099     150.278     146.567
  O        3.688     149.215     144.275
  H        4.650     149.083     144.372
  H        0.926     147.763     147.581
  H        0.636     149.387     147.005
  H        1.940     149.078     148.126

 6  7  8  9  10  11  12  13  14  15  25  28  32  33  34  35 0
 6-311+G(2d,p)
 ****
 36  39  40 0
 6-311+G(2d,p)
 ****
 1  2  3  4  5  16  17  18  19  20  21  22  23  24 0
 3-21G
 ****
 26  27  29  30  31  37  38  41  42  43  44  45  46  47 0
 3-21G
 ****
 48 0
 3-21G
 ****


