%nproc=1
%NoSave
%Mem=1900MB
#P OB98/GEN NMR

erre ene a

0 1
  C      -70.423     -48.989     -84.931
  O      -71.312     -47.891     -84.882
  H      -69.589     -48.769     -85.603
  H      -70.029     -49.169     -83.927
  H      -70.948     -49.886     -85.270
  P      -71.984     -47.460     -86.274
  C      -74.265     -48.396     -85.486
  O      -73.556     -47.273     -85.990
  C      -75.299     -47.942     -84.458
  O      -74.602     -47.245     -83.392
  C      -76.374     -46.998     -85.024
  O      -77.684     -47.455     -84.663
  C      -76.112     -45.677     -84.325
  O      -77.303     -44.943     -84.060
  C      -75.407     -46.110     -83.045
  N      -75.555     -41.633     -80.610
  C      -76.461     -42.630     -80.701
  N      -76.325     -43.838     -81.284
  C      -75.085     -43.987     -81.784
  C      -74.048     -43.070     -81.747
  C      -74.327     -41.831     -81.142
  N      -73.421     -40.794     -81.098
  N      -72.923     -43.574     -82.371
  C      -73.289     -44.760     -82.817
  N      -74.592     -45.045     -82.499
  O      -71.914     -48.804     -87.146
  O      -71.309     -46.324     -86.964
  H      -77.051     -44.157     -83.542
  H      -71.371     -48.635     -87.939
  H      -77.430     -42.428     -80.251
  H      -72.674     -45.427     -83.409
  H      -76.121     -46.427     -82.275
  H      -75.457     -45.064     -84.955
  H      -76.313     -46.894     -86.111
  H      -75.765     -48.830     -84.012
  H      -73.563     -49.086     -85.005
  H      -73.742     -39.905     -80.751
  H      -72.544     -40.900     -81.591
  H      -74.754     -48.913     -86.318
  P      -78.442     -48.365     -85.752
  C      -78.007     -50.829     -85.053
  O      -78.903     -49.725     -85.028
  O      -77.260     -48.824     -86.729
  O      -79.516     -47.644     -86.497
  H      -77.468     -48.565     -87.647
  H      -78.446     -51.657     -84.536
  H      -77.090     -50.555     -84.574
  H      -77.811     -51.106     -86.068

 6  7  8  9  10  11  12  13  14  15  25  28  32  33  34  35 0
 6-311+G(2d,p)
 ****
 36  39  40 0
 6-311+G(2d,p)
 ****
 1  2  3  4  5  16  17  18  19  20  21  22  23  24 0
 3-21G
 ****
 26  27  29  30  31  37  38  41  42  43  44  45  46  47  48 0
 3-21G
 ****


