%nproc=1
%NoSave
%Mem=1900MB
#P OB98/GEN NMR

erre ene a

0 1
  C      243.184    -354.414    -222.653
  O      243.285    -353.666    -223.875
  P      242.264    -353.857    -225.106
  C      243.481    -355.869    -226.165
  O      242.275    -355.391    -225.580
  C      243.206    -356.806    -227.349
  O      244.467    -357.235    -227.953
  C      242.410    -358.068    -226.988
  O      241.514    -358.314    -228.080
  C      243.512    -359.120    -226.918
  O      243.032    -360.456    -227.015
  C      244.379    -358.667    -228.101
  N      245.710    -359.268    -228.164
  C      245.930    -360.267    -229.118
  O      245.027    -360.673    -229.842
  N      247.195    -360.809    -229.219
  C      248.144    -360.396    -228.437
  N      249.375    -360.962    -228.596
  C      247.949    -359.357    -227.409
  C      246.729    -358.843    -227.333
  O      242.495    -352.885    -226.223
  O      240.804    -353.657    -224.483
  H      240.234    -353.210    -225.138
  H      242.434    -360.509    -227.778
  H      248.770    -359.032    -226.788
  H      246.506    -358.049    -226.619
  H      243.844    -358.865    -229.041
  H      244.032    -359.025    -225.964
  H      241.827    -357.974    -226.070
  H      242.676    -356.227    -228.126
  H      249.472    -361.667    -229.324
  H      244.042    -356.419    -225.405
  H      250.183    -360.708    -228.052
  H      244.088    -355.015    -226.481
  P      239.934    -358.160    -227.866
  C      239.527    -360.684    -227.346
  O      239.456    -359.346    -226.895
  O      239.357    -358.651    -229.284
  O      239.443    -356.785    -227.554
  H      238.490    -358.239    -229.431
  H      239.935    -361.308    -226.545
  H      240.151    -360.794    -228.239
  H      238.511    -361.027    -227.573
  H      243.967    -354.117    -221.987
  H      243.274    -355.459    -222.866
  H      242.235    -354.224    -222.196

 3  4  5  6  7  8  9  10  11  12  13  24  27  28  29  30  32 0
 6-311+G(2d,p)
 ****
 34  35 0
 6-311+G(2d,p)
 ****
 1  2  14  15  16  17  18  19  20  21  22  23  25  26 0
 3-21G
 ****
 31  33  36  37  38  39  40  41  42  43  44  45  46 0
 3-21G
 ****


