%nproc=1
%NoSave
%Mem=1900MB
#P OB98/GEN NMR

erre ene a

0 1
  C     -520.775     113.024    -140.652
  O     -520.915     114.427    -140.609
  H     -520.689     112.645    -139.629
  H     -519.867     112.752    -141.202
  H     -521.645     112.565    -141.127
  P     -521.094     115.177    -142.020
  C     -519.695     117.015    -143.218
  O     -519.699     115.907    -142.321
  C     -518.423     117.828    -143.028
  O     -518.411     118.400    -141.698
  C     -517.137     117.017    -143.137
  O     -516.777     116.771    -144.487
  C     -516.152     117.920    -142.403
  O     -515.643     118.949    -143.257
  C     -517.025     118.541    -141.302
  N     -514.603     118.964    -136.836
  C     -514.675     119.784    -137.907
  N     -515.360     119.604    -139.058
  C     -516.029     118.440    -139.029
  C     -516.047     117.497    -138.014
  C     -515.290     117.798    -136.867
  N     -515.184     116.945    -135.792
  N     -516.811     116.405    -138.371
  C     -517.256     116.688    -139.580
  N     -516.813     117.905    -140.017
  O     -522.085     116.383    -141.658
  O     -521.626     114.329    -143.126
  H     -515.081     119.521    -142.701
  H     -523.005     116.122    -141.852
  H     -514.105     120.706    -137.835
  H     -517.891     116.047    -140.183
  H     -516.833     119.609    -141.172
  H     -515.297     117.352    -142.025
  H     -517.236     116.074    -142.584
  H     -518.422     118.654    -143.750
  H     -520.564     117.647    -143.009
  H     -519.767     116.636    -144.246
  H     -514.607     117.214    -135.013
  H     -515.609     116.031    -135.854
  P     -516.126     115.361    -144.858
  C     -513.848     114.195    -144.383
  O     -514.755     115.220    -144.028
  O     -515.636     115.562    -146.366
  O     -517.048     114.186    -144.719
  H     -516.271     115.163    -146.984
  H     -512.994     114.236    -143.740
  H     -513.538     114.329    -145.398
  H     -514.327     113.244    -144.279

 6  7  8  9  10  11  12  13  14  15  25  28  32  33  34  35 0
 6-311+G(2d,p)
 ****
 36  37  40 0
 6-311+G(2d,p)
 ****
 1  2  3  4  5  16  17  18  19  20  21  22  23  24 0
 3-21G
 ****
 26  27  29  30  31  38  39 41  42  43  44  45  46  47  48 0
 3-21G
 ****


