%nproc=1
%NoSave
%Mem=1900MB
#P OB98/GEN NMR

erre ene a

0 1
  C      255.832    -384.204    -221.007
  O      255.851    -385.350    -220.163
  P      254.465    -386.134    -219.953
  C      252.052    -385.351    -219.409
  O      253.440    -385.047    -219.364
  C      251.222    -384.102    -219.144
  O      251.476    -383.123    -220.168
  C      249.717    -384.330    -219.163
  O      249.243    -384.861    -217.936
  C      249.210    -382.910    -219.376
  O      249.187    -382.210    -218.119
  C      250.283    -382.313    -220.305
  N      249.247    -379.355    -224.283
  C      249.632    -379.014    -223.000
  N      249.788    -377.695    -222.752
  N      249.841    -379.881    -222.046
  C      249.687    -381.165    -222.450
  C      249.312    -381.629    -223.694
  C      249.031    -380.653    -224.725
  O      248.624    -380.898    -225.859
  N      249.279    -383.000    -223.724
  C      249.670    -383.367    -222.517
  N      249.902    -382.287    -221.701
  O      254.771    -387.075    -218.692
  O      253.994    -386.919    -221.129
  H      248.546    -382.677    -217.543
  H      254.185    -387.854    -218.710
  H      249.115    -378.645    -224.980
  H      249.795    -384.391    -222.199
  H      250.550    -381.297    -219.996
  H      248.192    -382.875    -219.779
  H      249.768    -376.990    -223.474
  H      249.423    -384.956    -220.013
  H      250.104    -377.426    -221.828
  H      251.533    -383.680    -218.181
  H      251.825    -386.099    -218.641
  H      251.814    -385.777    -220.387
  P      247.866    -385.687    -217.994
  C      245.380    -384.991    -218.274
  O      246.711    -384.577    -218.043
  O      247.749    -386.307    -216.522
  O      247.821    -386.735    -219.053
  H      247.209    -387.121    -216.541
  H      245.168    -385.952    -217.791
  H      245.205    -385.080    -219.347
  H      244.702    -384.238    -217.867
  H      256.814    -383.782    -221.058
  H      255.153    -383.479    -220.609
  H      255.515    -384.489    -221.988

 3  4  5  6  7  8  9  10  11  12  23  26  30  31  33  0
 6-311+G(2d,p)
 ****
 35  36  37  38 0
 6-311+G(2d,p)
 ****
 1  2  13  14  15  16  17  18  19  20  21  22  24  25  27  28  29 0
 3-21G
 ****
 32  34  39  40  41  42  43  44  45  46  47  48  49 0
 3-21G
 ****


