%nproc=1
%NoSave
%Mem=1900MB
#P OB98/GEN NMR

erre ene a

0 1
  C     1354.363    -293.440    -254.850
  O     1354.854    -294.436    -253.970
  H     1354.209    -293.896    -255.831
  H     1355.092    -292.633    -254.947
  H     1353.407    -293.042    -254.502
  P     1355.003    -294.072    -252.416
  C     1357.504    -294.655    -252.180
  O     1356.535    -293.621    -252.184
  C     1358.901    -294.058    -252.002
  O     1359.194    -293.158    -253.114
  C     1359.063    -293.212    -250.740
  O     1359.176    -294.036    -249.583
  C     1360.299    -292.411    -251.088
  O     1361.484    -293.160    -250.855
  C     1360.107    -292.159    -252.601
  N     1359.607    -290.813    -252.884
  C     1359.552    -290.439    -254.234
  O     1359.865    -291.203    -255.158
  N     1359.147    -289.156    -254.490
  C     1358.979    -288.173    -253.538
  O     1358.866    -286.988    -253.820
  C     1358.982    -288.630    -252.157
  C     1359.312    -289.902    -251.885
  O     1354.500    -295.109    -251.457
  O     1354.202    -292.690    -252.265
  H     1353.329    -292.874    -251.864
  H     1362.210    -292.654    -251.284
  H     1359.151    -288.871    -255.461
  H     1358.774    -287.906    -251.380
  H     1359.378    -290.253    -250.856
  H     1361.058    -292.291    -253.138
  H     1360.352    -291.487    -250.502
  H     1358.202    -292.541    -250.630
  H     1359.644    -294.872    -252.036
  H     1357.459    -295.201    -253.128
  H     1357.295    -295.356    -251.366
  P     1358.833    -293.434    -248.137
  C     1361.209    -293.990    -247.330
  O     1360.208    -292.986    -247.447
  O     1357.950    -294.305    -247.295
  O     1358.112    -292.034    -248.459
  H     1357.272    -291.999    -247.961
  H     1362.075    -293.577    -246.857
  H     1361.471    -294.348    -248.304
  H     1360.834    -294.801    -246.741

 6  7  8  9  10  11  12  13  14  15  16  27  31  32  33  34  35 0
 6-311+G(2d,p)
 ****
 36  37 0
 6-311+G(2d,p)
 ****
 1  2  3  4  5  17  18  19  20  21  22  23  24  25 0
 3-21G
 ****
 26  28  29  30  38  39  40  41  42  43  44  45 0
 3-21G
 ****


