%nproc=1
%NoSave
%Mem=1900MB
#P OB98/GEN NMR

erre ene a

0 1
  C      354.587     432.891    -719.664
  O      354.720     433.699    -720.843
  P      355.518     435.087    -720.751
  C      357.223     436.371    -722.217
  O      356.171     435.418    -722.185
  C      358.535     435.694    -722.635
  O      358.854     434.573    -721.762
  C      358.468     435.088    -724.033
  O      358.400     435.989    -725.118
  C      359.619     434.099    -724.015
  O      360.864     434.740    -724.297
  C      359.587     433.609    -722.544
  N      359.000     432.264    -722.409
  C      359.716     431.368    -721.614
  O      360.787     431.642    -721.081
  N      359.157     430.122    -721.477
  C      358.007     429.697    -722.087
  O      357.571     428.554    -721.944
  C      357.319     430.674    -722.940
  C      357.840     431.903    -723.052
  O      356.437     435.238    -719.590
  O      354.323     436.168    -720.665
  H      361.573     434.099    -724.106
  H      354.587     436.850    -720.013
  H      359.654     429.463    -720.910
  H      356.413     430.365    -723.423
  H      357.349     432.643    -723.684
  H      360.610     433.571    -722.127
  H      359.492     433.304    -724.764
  H      357.543     434.491    -724.097
  H      359.343     436.419    -722.546
  H      357.335     436.839    -721.228
  H      356.949     437.181    -722.896
  P      357.043     436.321    -725.897
  C      356.316     437.934    -727.803
  O      357.379     437.325    -727.101
  O      355.839     436.632    -725.076
  O      356.785     434.933    -726.691
  H      355.821     434.801    -726.766
  H      356.733     438.569    -728.597
  H      355.719     438.553    -727.145
  H      355.682     437.168    -728.267
  H      354.032     432.007    -719.898
  H      354.072     433.446    -718.908
  H      355.558     432.618    -719.307

 3  4  5  6  7  8  9  10  11  12  13  23  28  29  30  31  32 0
 6-311+G(2d,p)
 ****
 33  34 0
 6-311+G(2d,p)
 ****
 1  2  14  15  16  17  18  19  20  21  22  24  25  26  27 0
 3-21G
 ****
 35  36  37  38  39  40  41  42  43  44  45 0
 3-21G
 ****


