%nproc=1
%NoSave
%Mem=1900MB
#P OB98/GEN NMR

erre ene a

0 1
  C      182.408     151.443    -313.158
  O      182.491     152.725    -313.750
  H      181.360     151.222    -312.946
  H      182.969     151.416    -312.220
  H      182.793     150.680    -313.843
  P      183.938     153.282    -314.154
  C      184.409     154.484    -311.916
  O      184.759     153.410    -312.781
  C      185.024     154.265    -310.537
  O      184.481     153.079    -309.927
  C      186.541     154.089    -310.557
  O      187.187     155.349    -310.638
  C      186.753     153.389    -309.225
  O      186.665     154.349    -308.153
  C      185.549     152.432    -309.181
  N      188.065     148.055    -308.712
  C      188.120     149.198    -307.936
  N      189.004     149.186    -306.916
  N      187.390     150.262    -308.156
  C      186.607     150.154    -309.252
  C      186.479     149.082    -310.108
  C      187.251     147.891    -309.823
  O      187.221     146.852    -310.477
  N      185.634     149.369    -311.152
  C      185.222     150.599    -310.905
  N      185.795     151.125    -309.770
  O      183.961     154.526    -314.991
  O      184.638     152.047    -314.891
  H      186.630     153.839    -307.322
  H      184.497     152.084    -315.853
  H      188.668     147.278    -308.503
  H      184.511     151.146    -311.509
  H      185.187     152.263    -308.161
  H      187.725     152.904    -309.144
  H      189.770     148.526    -306.879
  H      186.861     153.414    -311.358
  H      189.094     150.030    -306.366
  H      184.738     155.116    -309.904
  H      183.315     154.509    -311.848
  H      184.759     155.435    -312.329
  P      188.450     155.573    -311.604
  C      190.045     155.085    -309.634
  O      189.635     154.720    -310.945
  O      188.785     156.999    -311.876
  O      188.104     154.728    -312.917
  H      187.592     155.239    -313.593
  H      190.837     154.440    -309.316
  H      189.217     154.991    -308.962
  H      190.389     156.098    -309.637

 6  7  8  9  10  11  12  13  14  15  26  29  33  34 0
 6-311+G(2d,p)
 ****
 36  38  39  40  41 0
 6-311+G(2d,p)
 ****
 1  2  3  4  5  16  17  18  19  20  21  22  23  24  25 0
 3-21G
 ****
 27  28  30  31  32  35  37  42  43  44  45  46  47 0
 3-21G
 ****
 48  49 0
 3-21G
 ****


