%nproc=1
%NoSave
%Mem=1900MB
#P OB98/GEN NMR

erre ene a

0 1
  C      -22.962    -108.841       9.024
  O      -22.254    -109.836       8.316
  H      -23.860    -109.290       9.456
  H      -23.263    -108.040       8.345
  H      -22.347    -108.436       9.831
  P      -20.876    -109.397       7.616
  C      -21.953    -108.646       5.369
  O      -21.293    -108.252       6.564
  C      -22.537    -107.424       4.654
  O      -22.857    -107.781       3.288
  C      -23.813    -106.893       5.310
  O      -23.763    -105.466       5.353
  C      -24.926    -107.364       4.392
  O      -26.077    -106.525       4.462
  C      -24.223    -107.404       3.031
  N      -24.868    -108.340       2.113
  C      -25.890    -107.830       1.308
  O      -26.218    -106.645       1.400
  N      -26.551    -108.679       0.458
  C      -26.261    -109.942       0.456
  N      -26.967    -110.737      -0.392
  C      -25.223    -110.533       1.323
  C      -24.570    -109.684       2.113
  O      -20.530    -110.652       6.689
  O      -19.781    -109.011       8.552
  H      -25.834    -105.646       4.096
  H      -19.599    -110.612       6.360
  H      -25.028    -111.595       1.298
  H      -23.792    -110.029       2.786
  H      -24.217    -106.407       2.569
  H      -25.233    -108.376       4.683
  H      -23.960    -107.270       6.321
  H      -21.764    -106.650       4.603
  H      -27.679    -110.298      -0.963
  H      -22.757    -109.344       5.620
  H      -26.846    -111.737      -0.454
  H      -21.235    -109.146       4.710
  P      -23.205    -104.824       6.716
  C      -25.405    -103.637       7.404
  O      -24.453    -104.644       7.711
  O      -22.828    -103.328       6.297
  O      -22.044    -105.564       7.293
  H      -21.870    -103.249       6.136
  H      -26.173    -103.634       8.149
  H      -25.838    -103.835       6.446
  H      -24.922    -102.683       7.386

 6  7  8  9  10  11  12  13  14  15  16  26  30  31  32  33  35 0
 6-311+G(2d,p)
 ****
 37  38 0
 6-311+G(2d,p)
 ****
 1  2  3  4  5  17  18  19  20  21  22  23  24  25 0
 3-21G
 ****
 27  28  29  34  36  39  40  41  42  43  44  45  46 0
 3-21G
 ****


