%nproc=1
%NoSave
%Mem=1900MB
#P OB98/GEN NMR

erre ene a

0 1
  C     -516.678    -853.619    -710.347
  O     -517.151    -852.695    -709.389
  H     -515.603    -853.749    -710.210
  H     -516.858    -853.241    -711.359
  H     -517.172    -854.589    -710.221
  P     -518.719    -852.346    -709.448
  C     -518.538    -852.049    -706.879
  O     -519.046    -851.533    -708.103
  C     -519.136    -851.286    -705.694
  O     -520.575    -851.213    -705.811
  C     -518.836    -851.905    -704.338
  O     -517.554    -851.520    -703.868
  C     -519.966    -851.337    -703.495
  O     -519.680    -849.990    -703.069
  C     -521.144    -851.356    -704.479
  N     -524.561    -853.854    -701.718
  C     -523.996    -852.612    -701.523
  N     -524.345    -851.969    -700.393
  N     -523.141    -852.062    -702.349
  C     -522.853    -852.848    -703.418
  C     -523.365    -854.085    -703.739
  C     -524.322    -854.662    -702.828
  O     -524.917    -855.733    -702.975
  N     -522.845    -854.546    -704.916
  C     -521.993    -853.607    -705.292
  N     -521.956    -852.560    -704.407
  O     -519.424    -853.763    -709.198
  O     -519.185    -851.714    -710.715
  H     -520.427    -849.654    -702.544
  H     -520.278    -853.778    -709.672
  H     -525.221    -854.217    -701.052
  H     -521.394    -853.646    -706.192
  H     -521.823    -850.512    -704.329
  H     -520.133    -851.925    -702.589
  H     -524.704    -852.454    -699.588
  H     -518.929    -853.007    -704.379
  H     -523.913    -851.062    -700.231
  H     -518.757    -850.256    -705.741
  H     -517.446    -851.931    -706.865
  H     -518.783    -853.110    -706.806
  P     -516.427    -852.650    -703.755
  C     -514.646    -850.764    -703.908
  O     -515.099    -851.923    -703.222
  O     -516.078    -852.979    -705.281
  O     -516.842    -853.875    -702.997
  H     -515.608    -853.835    -705.343
  H     -513.758    -850.396    -703.439
  H     -515.405    -850.011    -703.875
  H     -514.434    -851.013    -704.927

 6  7  8  9  10  11  12  13  14  15  26  29  33  34 0
 6-311+G(2d,p)
 ****
 36  38  39  40  41 0
 6-311+G(2d,p)
 ****
 1  2  3  4  5  16  17  18  19  20  21  22  23  24  25 0
 3-21G
 ****
 27  28  30  31  32  35  37  42  43  44  45  46  47 0
 3-21G
 ****
 48  49 0
 3-21G
 ****


