%nproc=1
%NoSave
%Mem=1900MB
#P OB98/GEN NMR

erre ene a

0 1
  C       10.970    -582.843     597.663
  O        9.869    -582.084     597.195
  P       10.057    -581.062     595.979
  C       10.345    -578.481     595.781
  O       10.024    -579.583     596.600
  C       10.445    -577.189     596.606
  O        9.108    -576.827     597.024
  C       11.270    -577.304     597.882
  O       11.625    -575.990     598.317
  C       10.264    -577.899     598.847
  O       10.633    -577.690     600.206
  C        8.939    -577.226     598.405
  N        7.796    -578.142     598.537
  C        7.238    -578.281     599.807
  O        7.614    -577.618     600.774
  N        6.295    -579.258     599.947
  C        5.908    -580.125     598.960
  O        5.309    -581.178     599.171
  C        6.350    -579.780     597.600
  C        7.282    -578.832     597.452
  O        8.666    -581.178     595.199
  O       11.219    -581.347     595.094
  H       10.608    -576.718     600.363
  H        8.752    -581.801     594.451
  H        6.001    -579.456     600.893
  H        5.943    -580.347     596.773
  H        7.660    -578.592     596.469
  H        8.728    -576.330     599.008
  H       10.205    -578.980     598.681
  H       12.161    -577.928     597.787
  H       10.828    -576.384     595.964
  H        9.591    -578.383     594.994
  H       11.299    -578.654     595.274
  P       13.085    -575.779     598.945
  C       14.301    -576.575     601.064
  O       13.075    -576.533     600.360
  O       13.590    -574.374     598.965
  O       14.010    -576.726     598.048
  H       14.942    -576.463     598.135
  H       14.093    -576.616     602.135
  H       14.916    -575.689     600.855
  H       14.854    -577.468     600.775
  H       10.655    -583.466     598.474
  H       11.741    -582.182     597.999
  H       11.345    -583.454     596.869

 3  4  5  6  7  8  9  10  11  12  13  23  28  29  30  31  32 0
 6-311+G(2d,p)
 ****
 33  34 0
 6-311+G(2d,p)
 ****
 1  2  14  15  16  17  18  19  20  21  22  24  25  26  27 0
 3-21G
 ****
 35  36  37  38  39  40  41  42  43  44  45 0
 3-21G
 ****


