%nproc=1
%NoSave
%Mem=1900MB
#P OB98/GEN NMR

erre ene a

0 1
  C       92.110      34.673    -245.801
  O       92.006      36.073    -245.951
  P       93.131      36.966    -246.652
  C       94.760      36.364    -244.717
  O       94.202      37.392    -245.529
  C       95.562      36.909    -243.526
  O       96.686      37.671    -244.013
  C       94.700      37.881    -242.712
  O       93.800      37.390    -241.738
  C       95.670      38.944    -242.215
  O       96.093      38.712    -240.869
  C       96.852      38.826    -243.175
  N       96.478      43.865    -243.572
  C       96.476      43.080    -242.436
  N       96.139      43.708    -241.288
  N       96.752      41.803    -242.437
  C       96.971      41.302    -243.678
  C       97.018      41.982    -244.871
  C       96.753      43.401    -244.849
  O       96.664      44.115    -245.845
  N       97.197      41.135    -245.934
  C       97.221      39.936    -245.391
  N       97.047      39.985    -244.027
  O       92.661      38.002    -247.622
  O       93.942      35.853    -247.490
  H       96.643      37.907    -240.862
  H       94.253      36.275    -248.313
  H       96.183      44.833    -243.520
  H       97.322      39.006    -245.939
  H       97.787      38.678    -242.622
  H       95.195      39.933    -242.220
  H       95.781      44.655    -241.271
  H       94.053      38.404    -243.429
  H       95.960      43.133    -240.470
  H       95.989      36.094    -242.933
  H       95.395      35.749    -245.362
  H       93.958      35.718    -244.345
  P       92.225      37.666    -241.676
  C       92.584      39.857    -240.409
  O       91.927      38.601    -240.410
  O       91.595      36.260    -241.230
  O       91.615      38.126    -242.958
  H       90.658      36.222    -241.498
  H       92.560      40.271    -239.396
  H       92.064      40.543    -241.083
  H       93.625      39.755    -240.727
  H       91.238      34.302    -245.304
  H       92.978      34.440    -245.220
  H       92.193      34.216    -246.765

 3  4  5  6  7  8  9  10  11  12  23  26  30  31 0
 6-311+G(2d,p)
 ****
 33  35  36  37  38 0
 6-311+G(2d,p)
 ****
 1  2  13  14  15  16  17  18  19  20  21  22  24  25 0
 3-21G
 ****
 27  28  29  32  34  39  40  41  42  43  44  45  46  47  48  49 0
 3-21G
 ****


