%nproc=1
%NoSave
%Mem=1900MB
#P OB98/GEN NMR

erre ene a

0 1
  C     -226.794    -133.344      -8.215
  O     -226.107    -134.576      -8.133
  H     -226.132    -132.522      -7.933
  H     -227.121    -133.192      -9.248
  H     -227.673    -133.355      -7.565
  P     -225.548    -134.999      -6.690
  C     -225.914    -137.042      -5.128
  O     -226.136    -136.465      -6.406
  C     -226.823    -138.253      -4.948
  O     -228.190    -137.826      -4.750
  C     -226.854    -139.199      -6.143
  O     -225.743    -140.079      -6.160
  C     -228.149    -139.947      -5.873
  O     -227.936    -140.930      -4.843
  C     -229.057    -138.822      -5.357
  N     -233.031    -139.404      -8.527
  C     -232.478    -140.229      -7.615
  N     -231.418    -140.002      -6.814
  C     -230.919    -138.774      -7.025
  C     -231.371    -137.825      -7.925
  C     -232.490    -138.178      -8.700
  N     -233.049    -137.343      -9.642
  N     -230.582    -136.692      -7.880
  C     -229.689    -136.944      -6.944
  N     -229.845    -138.193      -6.403
  O     -226.377    -134.074      -5.679
  O     -224.073    -134.872      -6.503
  H     -227.191    -141.488      -5.139
  H     -225.908    -134.006      -4.827
  H     -232.949    -141.205      -7.517
  H     -228.916    -136.259      -6.622
  H     -229.755    -139.167      -4.586
  H     -228.527    -140.477      -6.748
  H     -226.946    -138.649      -7.089
  H     -226.506    -138.783      -4.039
  H     -226.141    -136.302      -4.354
  H     -233.722    -137.757     -10.268
  H     -232.560    -136.492      -9.880
  H     -224.864    -137.338      -5.044
  P     -225.453    -140.872      -7.524
  C     -223.305    -141.509      -8.846
  O     -223.861    -140.861      -7.707
  O     -225.967    -139.861      -8.650
  O     -226.108    -142.210      -7.622
  H     -226.231    -140.343      -9.456
  H     -222.239    -141.415      -8.825
  H     -223.686    -141.054      -9.736
  H     -223.572    -142.545      -8.832

 6  7  8  9  10  11  12  13  14  15  25  28  32  33  34  35 0
 6-311+G(2d,p)
 ****
 36  39  40 0
 6-311+G(2d,p)
 ****
 1  2  3  4  5  16  17  18  19  20  21  22  23  24 0
 3-21G
 ****
 26  27  29  30  31  37  38  41  42  43  44  45  46  47 0
 3-21G
 ****
 48 0
 3-21G
 ****


