%nproc=1
%NoSave
%Mem=1900MB
#P OB98/GEN NMR

erre ene a

0 1
  C     -401.899     -80.523     191.804
  O     -402.016     -81.711     192.571
  H     -401.019     -80.608     191.162
  H     -401.779     -79.649     192.452
  H     -402.782     -80.399     191.173
  P     -403.078     -81.728     193.776
  C     -402.030     -83.943     194.598
  O     -402.392     -82.607     194.937
  C     -400.901     -84.451     195.503
  O     -399.669     -83.780     195.188
  C     -401.133     -84.175     196.984
  O     -402.185     -84.930     197.553
  C     -399.729     -84.283     197.564
  O     -399.354     -85.617     197.895
  C     -398.861     -83.777     196.381
  N     -398.291     -82.461     196.648
  C     -397.190     -82.436     197.500
  O     -396.719     -83.446     198.027
  N     -396.667     -81.200     197.767
  C     -397.158     -80.007     197.310
  O     -396.666     -78.925     197.616
  C     -398.337     -80.094     196.434
  C     -398.846     -81.300     196.151
  O     -404.463     -82.175     193.415
  O     -403.016     -80.241     194.362
  H     -399.699     -86.196     197.180
  H     -403.801     -80.046     194.925
  H     -395.861     -81.165     198.368
  H     -398.759     -79.168     196.058
  H     -399.719     -81.389     195.507
  H     -398.028     -84.468     196.198
  H     -399.622     -83.682     198.466
  H     -401.430     -83.126     197.093
  H     -400.769     -85.525     195.320
  H     -401.681     -83.937     193.562
  H     -402.905     -84.595     194.675
  P     -403.407     -84.275     198.343
  C     -404.524     -86.614     198.553
  O     -404.117     -85.422     199.221
  O     -404.275     -83.326     197.574
  O     -402.636     -83.416     199.469
  H     -403.160     -82.606     199.638
  H     -404.977     -87.280     199.257
  H     -403.670     -87.086     198.114
  H     -405.230     -86.370     197.787

 6  7  8  9  10  11  12  13  14  15  16  26  31  32  33  34  35 0
 6-311+G(2d,p)
 ****
 36  37 0
 6-311+G(2d,p)
 ****
 1  2  3  4  5  17  18  19  20  21  22  23  24  25 0
 3-21G
 ****
 27  28  29  30  38  39  40  41  42  43  44  45 0
 3-21G
 ****


