%nproc=1
%NoSave
%Mem=1900MB
#P OB98/GEN NMR

erre ene a

0 1
  C     -579.976    -268.828      57.139
  O     -580.338    -267.784      56.231
  P     -581.749    -267.071      56.474
  C     -580.968    -264.653      57.016
  O     -581.602    -265.524      56.087
  C     -580.419    -263.422      56.296
  O     -579.150    -263.694      55.661
  C     -581.327    -262.922      55.178
  O     -582.454    -262.245      55.704
  C     -580.361    -262.038      54.399
  O     -580.213    -260.762      55.050
  C     -579.046    -262.830      54.507
  N     -577.327    -262.726      49.687
  C     -577.491    -261.749      50.608
  N     -577.958    -261.858      51.870
  C     -578.260    -263.137      52.156
  C     -578.144    -264.234      51.321
  C     -577.653    -263.993      50.028
  N     -577.502    -264.984      49.083
  N     -578.556    -265.380      51.968
  C     -578.936    -264.979      53.161
  N     -578.768    -263.633      53.327
  O     -581.885    -267.054      58.069
  O     -582.896    -267.777      55.832
  H     -579.445    -260.311      54.635
  H     -582.563    -267.694      58.350
  H     -577.211    -260.752      50.288
  H     -579.343    -265.621      53.934
  H     -578.183    -262.174      54.662
  H     -580.687    -261.843      53.374
  H     -581.657    -263.760      54.550
  H     -580.276    -262.630      57.042
  H     -580.150    -265.176      57.528
  H     -577.218    -264.713      48.153
  H     -577.823    -265.915      49.297
  H     -581.688    -264.374      57.789
  P     -583.699    -261.994      54.728
  C     -585.151    -263.624      56.079
  O     -584.979    -262.284      55.651
  O     -583.644    -263.285      53.791
  O     -583.691    -260.678      54.022
  H     -583.504    -264.101      54.308
  H     -586.030    -263.674      56.727
  H     -584.278    -263.955      56.643
  H     -585.310    -264.275      55.213
  H     -579.017    -269.219      56.869
  H     -580.706    -269.609      57.093
  H     -579.934    -268.437      58.134

 3  4  5  6  7  8  9  10  11  12  22  25  29  30  31  32 0
 6-311+G(2d,p)
 ****
 33  36  37 0
 6-311+G(2d,p)
 ****
 1  2  13  14  15  16  17  18  19  20  21  23  24  26 0
 3-21G
 ****
 27  28  34  35  38  39  40  41  42  43  44  45  46  47  48 0
 3-21G
 ****


