%nproc=1
%NoSave
%Mem=1900MB
#P OB98/GEN NMR

erre ene a

0 1
  C       74.798      -9.496    -183.952
  O       73.922     -10.185    -183.086
  H       74.746      -8.426    -183.729
  H       74.494      -9.649    -184.991
  H       75.829      -9.837    -183.811
  P       73.951     -11.790    -183.128
  C       73.153     -13.589    -184.821
  O       73.089     -12.230    -184.410
  C       71.796     -14.044    -185.366
  O       70.937     -14.395    -184.248
  C       71.076     -12.974    -186.195
  O       70.414     -13.613    -187.291
  C       70.038     -12.415    -185.236
  O       68.919     -11.841    -185.911
  C       69.714     -13.643    -184.378
  N       69.173     -13.263    -183.076
  C       67.854     -12.797    -183.054
  O       67.206     -12.718    -184.103
  N       67.316     -12.379    -181.863
  C       68.058     -12.343    -180.802
  N       67.477     -11.890    -179.655
  C       69.477     -12.761    -180.788
  C       69.959     -13.211    -181.948
  O       73.019     -12.210    -181.898
  O       75.310     -12.407    -183.053
  H       68.506     -11.177    -185.316
  H       73.316     -13.051    -181.500
  H       70.062     -12.688    -179.883
  H       70.992     -13.529    -182.039
  H       68.981     -14.287    -184.888
  H       70.496     -11.631    -184.621
  H       71.746     -12.200    -186.575
  H       71.946     -14.957    -185.952
  H       66.508     -11.598    -179.709
  H       73.414     -14.211    -183.958
  H       67.971     -11.779    -178.783
  H       73.928     -13.702    -185.587
  P       70.804     -13.103    -188.762
  C       70.554     -10.912    -190.135
  O       70.215     -11.623    -188.950
  O       69.884     -14.001    -189.718
  O       72.254     -13.257    -189.087
  H       70.434     -14.657    -190.189
  H       70.091      -9.948    -190.117
  H       70.210     -11.457    -190.989
  H       71.616     -10.796    -190.190

 6  7  8  9  10  11  12  13  14  15  16  26  30  31  32  33  35 0
 6-311+G(2d,p)
 ****
 37  38 0
 6-311+G(2d,p)
 ****
 1  2  3  4  5  17  18  19  20  21  22  23  24  25 0
 3-21G
 ****
 27  28  29  34  36  39  40  41  42  43  44  45  46 0
 3-21G
 ****


