%nproc=1
%NoSave
%Mem=1900MB
#P OB98/GEN NMR

erre ene a

0 1
  C       90.751     281.329    -128.277
  O       91.358     282.044    -129.356
  P       90.537     282.140    -130.731
  C       90.677     279.941    -132.121
  O       90.000     280.679    -131.108
  C       89.748     278.876    -132.710
  O       89.508     277.816    -131.767
  C       88.373     279.412    -133.063
  O       88.414     280.131    -134.283
  C       87.540     278.135    -133.128
  O       87.540     277.568    -134.448
  C       88.259     277.201    -132.128
  N       87.451     276.911    -130.953
  C       86.251     276.237    -131.188
  O       85.916     275.943    -132.340
  N       85.445     275.935    -130.116
  C       85.800     276.301    -128.923
  N       84.960     275.974    -127.901
  C       87.048     277.033    -128.636
  C       87.820     277.309    -129.686
  O       91.678     282.408    -131.821
  O       89.501     283.218    -130.741
  H       87.306     276.623    -134.329
  H       91.333     282.967    -132.541
  H       87.297     277.321    -127.623
  H       88.753     277.847    -129.571
  H       88.507     276.248    -132.610
  H       86.494     278.330    -132.866
  H       88.002     280.057    -132.254
  H       90.226     278.453    -133.604
  H       84.114     275.473    -128.138
  H       91.572     279.469    -131.708
  H       85.134     276.215    -126.935
  H       91.021     280.635    -132.896
  P       88.016     281.681    -134.250
  C       85.988     281.447    -135.805
  O       86.428     281.705    -134.490
  O       88.570     282.198    -135.664
  O       88.531     282.499    -133.115
  H       88.472     283.165    -135.728
  H       84.906     281.289    -135.788
  H       86.465     280.550    -136.203
  H       86.209     282.304    -136.449
  H       91.402     281.344    -127.428
  H       90.575     280.316    -128.574
  H       89.821     281.792    -128.021

 3  4  5  6  7  8  9  10  11  12  13  21  23  27  28  29  30  32 0
 6-311+G(2d,p)
 ****
 34  35 0
 6-311+G(2d,p)
 ****
 1  2  14  15  16  17  18  19  20  22  24  25  26 0
 3-21G
 ****
 31  33  36  37  38  39  40  41  42  43  44  45  46 0
 3-21G
 ****


