%nproc=1
%NoSave
%Mem=1900MB
#P OB98/GEN NMR

erre ene a

0 1
  C      -40.721    -168.913     159.836
  O      -40.660    -170.063     159.017
  H      -40.215    -169.130     160.781
  H      -41.762    -168.657     160.051
  H      -40.221    -168.067     159.358
  P      -41.196    -169.967     157.510
  C      -43.405    -169.305     156.356
  O      -42.701    -169.423     157.584
  C      -44.524    -170.343     156.297
  O      -45.524    -170.055     157.299
  C      -45.266    -170.374     154.968
  O      -44.507    -171.031     153.972
  C      -46.545    -171.090     155.371
  O      -46.345    -172.510     155.422
  C      -46.794    -170.516     156.783
  N      -47.789    -169.444     156.794
  C      -49.089    -169.808     157.127
  O      -49.425    -170.966     157.371
  N      -50.008    -168.792     157.141
  C      -49.781    -167.504     156.753
  O      -50.662    -166.651     156.698
  C      -48.395    -167.182     156.387
  C      -47.477    -168.150     156.425
  O      -41.006    -171.189     156.677
  O      -40.395    -168.717     156.905
  H      -46.317    -172.818     154.496
  H      -39.693    -169.041     156.311
  H      -50.958    -169.038     157.366
  H      -48.174    -166.167     156.088
  H      -46.451    -167.933     156.154
  H      -47.138    -171.307     157.460
  H      -47.360    -170.906     154.672
  H      -45.517    -169.354     154.654
  H      -44.092    -171.327     156.526
  H      -42.706    -169.476     155.531
  H      -43.811    -168.291     156.274
  P      -44.886    -170.847     152.429
  C      -46.985    -171.034     150.959
  O      -46.434    -171.229     152.256
  O      -43.962    -171.507     151.461
  O      -44.883    -169.260     152.224
  H      -44.214    -169.022     151.553
  H      -48.016    -171.320     150.963
  H      -46.451    -171.633     150.251
  H      -46.902    -170.002     150.688

 6  7  8  9  10  11  12  13  14  15  16  26  31  32  33  34  35 0
 6-311+G(2d,p)
 ****
 36  37 0
 6-311+G(2d,p)
 ****
 1  2  3  4  5  17  18  19  20  21  22  23  24  25 0
 3-21G
 ****
 27  28  29  30  38  39  40  41  42  43  44  45 0
 3-21G
 ****


