%nproc=1
%NoSave
%Mem=1900MB
#P OB98/GEN NMR

erre ene a

0 1
  C     -356.181     441.816     522.608
  O     -357.221     440.857     522.550
  H     -356.571     442.728     523.064
  H     -355.825     442.050     521.603
  H     -355.347     441.450     523.222
  P     -356.865     439.362     522.094
  C     -356.870     440.071     519.607
  O     -357.404     439.200     520.590
  C     -357.551     439.847     518.249
  O     -357.185     438.522     517.769
  C     -359.097     439.898     518.298
  O     -359.534     440.375     517.014
  C     -359.431     438.428     518.488
  O     -360.787     438.152     518.295
  C     -358.422     437.814     517.500
  N     -358.231     436.373     517.616
  C     -358.216     435.630     516.446
  O     -358.345     436.088     515.313
  N     -358.043     434.278     516.601
  C     -357.870     433.619     517.786
  O     -357.687     432.409     517.868
  C     -357.900     434.458     518.998
  C     -358.072     435.787     518.851
  O     -357.277     438.282     523.036
  O     -355.274     439.395     521.892
  H     -354.838     438.987     522.663
  H     -361.318     438.714     518.896
  H     -358.022     433.721     515.768
  H     -357.780     433.979     519.952
  H     -358.089     436.431     519.727
  H     -358.709     438.058     516.471
  H     -359.199     438.126     519.515
  H     -359.474     440.556     519.085
  H     -357.154     440.572     517.527
  H     -355.793     439.875     519.521
  H     -357.012     441.111     519.930
  P     -359.581     441.928     516.618
  C     -361.979     441.622     515.671
  O     -360.665     442.111     515.442
  O     -358.239     442.518     516.311
  O     -360.261     442.663     517.872
  H     -359.964     443.595     517.905
  H     -362.585     441.812     514.810
  H     -362.401     442.117     516.520
  H     -361.941     440.569     515.855

 6  7  8  9  10  11  12  13  14  15  16  27  31  32  33  34  35 0
 6-311+G(2d,p)
 ****
 36  37 0
 6-311+G(2d,p)
 ****
 1  2  3  4  5  17  18  19  20  21  22  23  24  25 0
 3-21G
 ****
 26  28  29  30  38  39  40  41  42  43  44  45 0
 3-21G
 ****


