%nproc=1
%NoSave
%Mem=1900MB
#P OB98/GEN NMR

erre ene a

0 1
  C       54.699     -43.300     -39.933
  O       53.399     -43.080     -40.443
  H       55.331     -43.682     -40.739
  H       54.678     -44.040     -39.128
  H       55.128     -42.364     -39.567
  P       52.255     -42.592     -39.435
  C       51.940     -45.097     -38.863
  O       52.066     -43.769     -38.363
  C       51.108     -45.953     -37.910
  O       51.679     -45.930     -36.587
  C       49.668     -45.482     -37.748
  O       48.900     -45.824     -38.884
  C       49.284     -46.196     -36.461
  O       48.983     -47.578     -36.709
  C       50.592     -46.059     -35.641
  N       50.580     -44.937     -34.709
  C       49.642     -45.008     -33.672
  O       48.877     -45.969     -33.593
  N       49.588     -43.975     -32.768
  C       50.419     -42.986     -32.859
  N       50.316     -41.998     -31.930
  C       51.445     -42.890     -33.916
  C       51.461     -43.883     -34.803
  O       50.981     -42.115     -40.061
  O       52.962     -41.436     -38.581
  H       48.241     -47.583     -37.345
  H       52.781     -40.562     -38.974
  H       52.125     -42.051     -33.949
  H       52.185     -43.889     -35.613
  H       50.781     -46.976     -35.067
  H       48.406     -45.756     -35.989
  H       49.638     -44.402     -37.565
  H       51.146     -46.990     -38.269
  H       49.609     -42.119     -31.212
  H       52.953     -45.506     -38.949
  H       51.006     -41.272     -31.807
  H       51.486     -45.093     -39.860
  P       47.699     -44.894     -39.398
  C       46.084     -46.550     -38.274
  O       46.467     -45.189     -38.412
  O       47.382     -45.010     -40.851
  O       48.148     -43.422     -38.958
  H       48.838     -43.072     -39.576
  H       45.259     -46.621     -37.597
  H       46.908     -47.116     -37.893
  H       45.796     -46.938     -39.229

 6  7  8  9  10  11  12  13  14  15  16  26  30  31  32  33  35 0
 6-311+G(2d,p)
 ****
 37  38 0
 6-311+G(2d,p)
 ****
 1  2  3  4  5  17  18  19  20  21  22  23  24  25 0
 3-21G
 ****
 27  28  29  34  36  39  40  41  42  43  44  45  46 0
 3-21G
 ****


