%nproc=1
%NoSave
%Mem=1900MB
#P OB98/GEN NMR

erre ene a

0 1
  C     1212.087    -544.534     -90.794
  O     1211.168    -544.054     -89.822
  P     1209.888    -543.188     -90.243
  C     1207.520    -542.845     -89.241
  O     1208.763    -543.538     -89.139
  C     1206.566    -543.352     -88.160
  O     1206.419    -544.779     -88.293
  C     1207.031    -543.106     -86.726
  O     1206.834    -541.754     -86.353
  C     1206.199    -544.132     -85.974
  O     1204.863    -543.640     -85.771
  C     1206.157    -545.328     -86.965
  N     1207.121    -546.361     -86.626
  C     1206.754    -547.243     -85.600
  O     1205.654    -547.130     -85.020
  N     1207.613    -548.260     -85.254
  C     1208.739    -548.381     -85.867
  N     1209.540    -549.450     -85.547
  C     1209.201    -547.450     -86.936
  C     1208.341    -546.481     -87.252
  O     1209.446    -543.383     -91.671
  O     1210.264    -541.676     -89.883
  H     1204.367    -544.351     -85.319
  H     1210.728    -541.202     -90.613
  H     1210.165    -547.576     -87.402
  H     1208.591    -545.766     -88.027
  H     1205.149    -545.756     -87.000
  H     1206.601    -544.400     -84.988
  H     1208.098    -543.363     -86.616
  H     1205.578    -542.898     -88.327
  H     1209.097    -550.161     -84.953
  H     1207.074    -543.033     -90.216
  H     1210.272    -549.762     -86.167
  H     1207.713    -541.773     -89.127
  P     1207.381    -541.307     -84.922
  C     1209.173    -539.605     -84.091
  O     1208.573    -540.260     -85.192
  O     1208.112    -542.625     -84.371
  O     1206.316    -540.823     -83.972
  H     1207.544    -543.084     -83.723
  H     1210.084    -539.135     -84.422
  H     1209.408    -540.320     -83.295
  H     1208.499    -538.830     -83.715
  H     1212.864    -545.086     -90.308
  H     1212.513    -543.706     -91.321
  H     1211.575    -545.172     -91.484

 3  4  5  6  7  8  9  10  11  12  13  23  27  28  29  30  32 0
 6-311+G(2d,p)
 ****
 34  35 0
 6-311+G(2d,p)
 ****
 1  2  14  15  16  17  18  19  20  21  22  24  25  26 0
 3-21G
 ****
 31  33  36  37  38  39  40  41  42  43  44  45  46 0
 3-21G
 ****


