%nproc=1
%NoSave
%Mem=1900MB
#P OB98/GEN NMR

erre ene a

0 1
  C       45.674    -239.403    -100.892
  O       46.794    -240.295    -100.835
  P       46.748    -241.804    -101.379
  C       48.944    -242.352    -102.616
  O       48.233    -242.414    -101.385
  C       49.675    -241.016    -102.784
  O       50.596    -240.804    -101.670
  C       50.493    -240.898    -104.083
  O       50.341    -239.551    -104.542
  C       51.908    -241.162    -103.589
  O       52.914    -240.717    -104.478
  C       51.860    -240.417    -102.252
  N       52.958    -240.702    -101.333
  C       53.443    -239.646    -100.554
  O       53.005    -238.504    -100.672
  N       54.448    -239.907     -99.651
  C       54.931    -241.103     -99.541
  N       55.916    -241.293     -98.622
  C       54.464    -242.237    -100.357
  C       53.485    -241.968    -101.219
  O       46.043    -241.947    -102.689
  O       45.995    -242.645    -100.243
  H       45.451    -243.338    -100.664
  H       52.687    -241.032    -105.373
  H       54.890    -243.222    -100.227
  H       53.066    -242.757    -101.836
  H       51.810    -239.338    -102.438
  H       52.036    -242.240    -103.452
  H       50.162    -241.580    -104.872
  H       48.929    -240.213    -102.730
  H       56.204    -240.492     -98.074
  H       48.229    -242.469    -103.435
  H       56.357    -242.184     -98.448
  H       49.655    -243.184    -102.659
  P       49.615    -239.270    -105.945
  C       48.499    -236.964    -105.478
  O       49.524    -237.681    -106.134
  O       48.091    -239.648    -105.610
  O       50.099    -240.069    -107.111
  H       47.638    -239.906    -106.432
  H       48.930    -236.062    -105.036
  H       48.024    -237.548    -104.685
  H       47.742    -236.672    -106.209
  H       45.948    -238.459    -100.470
  H       44.859    -239.818    -100.337
  H       45.378    -239.266    -101.911

 3  4  5  6  7  8  9  10  11  12  13  24  27  28  29  30  32 0
 6-311+G(2d,p)
 ****
 34  35 0
 6-311+G(2d,p)
 ****
 1  2  14  15  16  17  18  19  20  21  22  23  25  26 0
 3-21G
 ****
 31  33  36  37  38  39  40  41  42  43  44  45  46 0
 3-21G
 ****


