%nproc=1
%NoSave
%Mem=1900MB
#P OB98/GEN NMR

erre ene a

0 1
  C     -223.320    -454.640     238.763
  O     -222.655    -454.318     239.990
  P     -222.938    -452.859     240.607
  C     -223.154    -453.583     243.085
  O     -222.419    -452.836     242.125
  C     -222.384    -453.727     244.407
  O     -221.341    -454.735     244.291
  C     -221.710    -452.425     244.867
  O     -221.743    -452.418     246.301
  C     -220.276    -452.602     244.411
  O     -219.393    -451.752     245.143
  C     -220.079    -454.113     244.656
  N     -218.965    -454.677     243.895
  C     -217.760    -454.846     244.573
  O     -217.639    -454.456     245.745
  N     -216.692    -455.408     243.918
  C     -216.809    -455.727     242.658
  N     -215.714    -456.270     242.053
  C     -218.050    -455.507     241.884
  C     -219.072    -454.989     242.557
  O     -224.535    -452.817     240.743
  O     -222.433    -451.744     239.742
  H     -218.491    -451.848     244.765
  H     -224.883    -451.994     240.352
  H     -218.092    -455.765     240.837
  H     -220.020    -454.802     242.078
  H     -219.901    -454.310     245.710
  H     -220.182    -452.368     243.344
  H     -222.195    -451.527     244.476
  H     -223.087    -454.070     245.177
  H     -214.888    -456.408     242.628
  H     -223.374    -454.575     242.689
  H     -215.699    -456.552     241.090
  H     -224.123    -453.100     243.245
  P     -222.924    -451.610     247.022
  C     -223.399    -453.457     248.749
  O     -222.911    -452.140     248.539
  O     -224.227    -452.343     246.432
  O     -223.000    -450.132     246.828
  H     -225.029    -451.889     246.757
  H     -223.219    -453.728     249.793
  H     -222.866    -454.165     248.095
  H     -224.472    -453.497     248.550
  H     -223.050    -455.630     238.460
  H     -223.027    -453.943     238.005
  H     -224.379    -454.587     238.907

 3  4  5  6  7  8  9  10  11  12  13  21  23  27  28  29  30  32 0
 6-311+G(2d,p)
 ****
 34  35 0
 6-311+G(2d,p)
 ****
 1  2  14  15  16  17  18  19  20  22  24  25  26 0
 3-21G
 ****
 31  33  36  37  38  39  40  41  42  43  44  45  46 0
 3-21G
 ****


