%nproc=1
%NoSave
%Mem=1900MB
#P OB98/GEN NMR

erre ene a

0 1
  C      165.537    -354.473    -321.632
  O      165.502    -355.863    -321.895
  H      164.512    -354.117    -321.481
  H      165.973    -353.944    -322.484
  H      166.119    -354.269    -320.730
  P      166.914    -356.622    -321.913
  C      167.376    -356.224    -324.465
  O      167.776    -355.997    -323.121
  C      167.913    -357.568    -324.951
  O      167.590    -357.777    -326.339
  C      169.433    -357.687    -324.910
  O      169.932    -357.822    -323.598
  C      169.638    -358.926    -325.767
  O      169.489    -360.130    -325.005
  C      168.504    -358.799    -326.817
  N      169.023    -358.499    -328.138
  C      169.848    -359.487    -328.695
  O      170.067    -360.530    -328.071
  N      170.428    -359.253    -329.916
  C      170.226    -358.118    -330.519
  N      170.855    -357.938    -331.715
  C      169.365    -357.055    -329.967
  C      168.799    -357.304    -328.787
  O      166.519    -358.073    -322.459
  O      167.632    -356.635    -320.606
  H      168.523    -360.254    -324.869
  H      165.968    -358.053    -323.258
  H      169.216    -356.132    -330.514
  H      168.156    -356.577    -328.311
  H      167.925    -359.732    -326.875
  H      170.639    -358.953    -326.207
  H      169.888    -356.832    -325.429
  H      167.437    -358.361    -324.357
  H      171.478    -358.675    -332.024
  H      167.731    -355.415    -325.114
  H      170.832    -357.072    -332.231
  H      166.284    -356.214    -324.491
  P      171.503    -357.761    -323.297
  C      171.591    -360.264    -322.682
  O      172.081    -359.243    -323.547
  O      171.882    -357.172    -321.982
  O      172.087    -356.965    -324.561
  H      171.915    -357.382    -325.425
  H      172.043    -361.199    -322.942
  H      170.529    -360.340    -322.786
  H      171.833    -360.020    -321.669

 6  7  8  9  10  11  12  13  14  15  16  26  30  31  32  33  35 0
 6-311+G(2d,p)
 ****
 37  38 0
 6-311+G(2d,p)
 ****
 1  2  3  4  5  17  18  19  20  21  22  23  24  25 0
 3-21G
 ****
 27  28  29  34  36  39  40  41  42  43  44  45  46 0
 3-21G
 ****


