%nproc=1
%NoSave
%Mem=1900MB
#P OB98/GEN NMR

erre ene a

0 1
  C      125.477    -297.931     181.456
  O      125.891    -296.823     182.248
  P      126.145    -295.420     181.514
  C      123.630    -294.925     181.122
  O      124.899    -295.170     180.533
  C      123.203    -293.471     180.924
  O      121.771    -293.363     181.151
  C      123.888    -292.469     181.861
  O      124.032    -291.240     181.141
  C      122.865    -292.281     182.966
  O      123.065    -291.068     183.688
  C      121.573    -292.344     182.155
  N      117.191    -290.584     184.114
  C      118.106    -290.011     183.301
  N      119.248    -290.545     182.822
  C      119.409    -291.802     183.266
  C      118.577    -292.503     184.127
  C      117.414    -291.843     184.557
  N      116.477    -292.425     185.377
  N      119.090    -293.760     184.376
  C      120.207    -293.818     183.681
  N      120.426    -292.668     182.976
  O      127.348    -295.763     180.513
  O      126.495    -294.284     182.414
  H      123.975    -291.072     184.043
  H      128.162    -295.303     180.798
  H      117.886    -288.993     182.991
  H      120.884    -294.657     183.654
  H      121.361    -291.398     181.638
  H      122.929    -293.112     183.679
  H      124.859    -292.804     182.241
  H      123.383    -293.198     179.876
  H      123.699    -295.123     182.196
  H      115.608    -291.940     185.530
  H      116.538    -293.422     185.557
  H      122.889    -295.600     180.689
  P      125.418    -290.453     181.316
  C      126.359    -291.417     179.099
  O      126.521    -291.275     180.498
  O      125.802    -290.717     182.848
  O      125.332    -288.994     181.010
  H      126.345    -289.980     183.187
  H      127.346    -291.439     178.631
  H      125.777    -290.595     178.668
  H      125.846    -292.362     178.892
  H      125.349    -298.789     182.082
  H      126.221    -298.138     180.715
  H      124.550    -297.699     180.975

 3  4  5  6  7  8  9  10  11  12  22  25  29  30  31  32 0
 6-311+G(2d,p)
 ****
 33  36  37 0
 6-311+G(2d,p)
 ****
 1  2  13  14  15  16  17  18  19  20  21  23  24  26 0
 3-21G
 ****
 27  28  34  35  38  39  40  41  42  43  44  45  46  47  48 0
 3-21G
 ****


