%nproc=1
%NoSave
%Mem=1900MB
#P OB98/GEN NMR

erre ene a

0 1
  C     -319.414    -328.410     273.684
  O     -320.302    -327.661     272.847
  P     -320.782    -328.370     271.491
  C     -319.934    -326.413     270.003
  O     -321.034    -327.227     270.392
  C     -320.405    -325.307     269.059
  O     -321.077    -324.246     269.773
  C     -319.269    -324.631     268.305
  O     -318.780    -325.458     267.261
  C     -319.960    -323.353     267.835
  O     -320.768    -323.620     266.671
  C     -320.867    -323.020     269.030
  N     -319.516    -318.106     269.442
  C     -320.051    -318.811     268.421
  N     -320.382    -320.118     268.391
  C     -320.113    -320.705     269.569
  C     -319.574    -320.111     270.699
  C     -319.265    -318.743     270.605
  N     -318.704    -318.026     271.638
  N     -319.447    -321.031     271.718
  C     -319.878    -322.166     271.203
  N     -320.304    -322.015     269.914
  O     -322.253    -328.888     271.845
  O     -319.891    -329.486     271.050
  H     -320.195    -324.068     266.015
  H     -322.251    -329.860     271.929
  H     -320.237    -318.252     267.509
  H     -319.903    -323.116     271.726
  H     -321.852    -322.658     268.715
  H     -319.256    -322.557     267.569
  H     -318.455    -324.379     268.995
  H     -321.113    -325.749     268.344
  H     -319.170    -327.021     269.509
  H     -318.438    -317.070     271.463
  H     -318.428    -318.513     272.481
  H     -319.474    -325.993     270.904
  P     -317.193    -325.562     267.073
  C     -317.420    -325.251     264.533
  O     -317.026    -326.125     265.575
  O     -316.844    -326.838     267.966
  O     -316.438    -324.315     267.388
  H     -317.467    -327.572     267.810
  H     -317.222    -325.740     263.575
  H     -316.847    -324.323     264.582
  H     -318.488    -325.036     264.607
  H     -319.169    -327.833     274.551
  H     -318.520    -328.637     273.142
  H     -319.890    -329.320     273.984

 3  4  5  6  7  8  9  10  11  12  22  25  29  30  31  32 0
 6-311+G(2d,p)
 ****
 33  36  37 0
 6-311+G(2d,p)
 ****
 1  2  13  14  15  16  17  18  19  20  21  23  24  26 0
 3-21G
 ****
 27  28  34  35  38  39  40  41  42  43  44  45  46  47  48 0
 3-21G
 ****


