%nproc=1
%NoSave
%Mem=1900MB
#P OB98/GEN NMR

erre ene a

0 1
  C      604.703    -331.692    -210.369
  O      603.569    -332.497    -210.032
  P      602.398    -331.826    -209.168
  C      599.928    -331.339    -209.842
  O      600.984    -332.290    -209.768
  C      598.916    -331.741    -210.918
  O      599.296    -331.241    -212.219
  C      598.771    -333.243    -211.085
  O      597.895    -333.796    -210.116
  C      598.144    -333.325    -212.470
  O      596.726    -333.055    -212.381
  C      598.848    -332.190    -213.218
  N      600.359    -334.788    -217.368
  C      599.134    -334.561    -216.844
  N      598.815    -333.875    -215.719
  C      599.914    -333.383    -215.138
  C      601.230    -333.530    -215.554
  C      601.435    -334.274    -216.730
  N      602.685    -334.500    -217.261
  N      602.094    -332.891    -214.690
  C      601.315    -332.353    -213.773
  N      599.995    -332.631    -213.994
  O      602.483    -330.279    -209.577
  O      602.554    -332.003    -207.693
  H      596.369    -333.127    -213.283
  H      602.255    -329.721    -208.812
  H      598.302    -334.989    -217.385
  H      601.661    -331.756    -212.941
  H      598.180    -331.659    -213.904
  H      598.244    -334.317    -212.923
  H      599.748    -333.737    -211.091
  H      597.949    -331.304    -210.650
  H      600.333    -330.346    -210.058
  H      602.757    -335.020    -218.126
  H      603.496    -334.098    -216.800
  H      599.448    -331.265    -208.859
  P      598.559    -334.379    -208.773
  C      597.477    -335.508    -206.698
  O      597.435    -335.296    -208.095
  O      598.643    -333.093    -207.826
  O      599.892    -335.018    -208.975
  H      599.407    -333.173    -207.223
  H      596.503    -335.878    -206.372
  H      597.700    -334.579    -206.164
  H      598.241    -336.256    -206.458
  H      605.395    -332.273    -210.943
  H      605.179    -331.353    -209.473
  H      604.383    -330.848    -210.944

 3  4  5  6  7  8  9  10  11  12  22  25  29  30  31  32 0
 6-311+G(2d,p)
 ****
 33  36  37 0
 6-311+G(2d,p)
 ****
 1  2  13  14  15  16  17  18  19  20  21  23  24  26 0
 3-21G
 ****
 27  28  34  35  38  39  40  41  42  43  44  45  46  47  48 0
 3-21G
 ****


