%nproc=1
%NoSave
%Mem=1900MB
#P OB98/GEN NMR

erre ene a

0 1
  C       27.016    -396.012    -116.879
  O       26.640    -395.775    -118.242
  P       27.742    -396.051    -119.369
  C       26.825    -398.420    -120.009
  O       27.883    -397.645    -119.462
  C       27.353    -399.305    -121.137
  O       28.389    -400.190    -120.650
  C       26.310    -400.220    -121.759
  O       25.431    -399.488    -122.608
  C       27.196    -401.234    -122.472
  O       27.656    -400.700    -123.725
  C       28.379    -401.364    -121.489
  N       28.331    -402.589    -120.700
  C       29.104    -403.655    -121.184
  O       29.758    -403.590    -122.218
  N       29.054    -404.806    -120.446
  C       28.316    -405.003    -119.309
  O       28.331    -406.056    -118.675
  C       27.494    -403.863    -118.879
  C       27.540    -402.728    -119.578
  O       29.074    -395.576    -118.624
  O       27.450    -395.348    -120.654
  H       29.062    -395.772    -117.673
  H       28.169    -401.417    -124.160
  H       29.609    -405.581    -120.773
  H       26.881    -403.991    -117.996
  H       26.931    -401.880    -119.282
  H       29.329    -401.356    -122.040
  H       26.674    -402.162    -122.690
  H       25.733    -400.719    -120.968
  H       27.794    -398.651    -121.898
  H       26.048    -397.760    -120.410
  H       26.368    -399.013    -119.211
  P       23.866    -399.833    -122.491
  C       23.106    -398.265    -120.521
  O       23.455    -399.566    -120.963
  O       23.880    -401.427    -122.605
  O       23.013    -399.141    -123.508
  H       24.578    -401.840    -122.083
  H       22.547    -398.352    -119.599
  H       22.499    -397.750    -121.270
  H       24.023    -397.690    -120.341
  H       26.190    -395.788    -116.237
  H       27.845    -395.386    -116.624
  H       27.294    -397.038    -116.759

 3  4  5  6  7  8  9  10  11  12  13  24  28  29  30  31  32 0
 6-311+G(2d,p)
 ****
 33  34 0
 6-311+G(2d,p)
 ****
 1  2  14  15  16  17  18  19  20  21  22  23  25  26  27 0
 3-21G
 ****
 35  36  37  38  39  40  41  42  43  44  45 0
 3-21G
 ****


