%nproc=1
%NoSave
%Mem=1900MB
#P OB98/GEN NMR

erre ene a

0 1
  C      251.146    -892.200    -649.668
  O      252.436    -892.320    -649.096
  H      250.683    -891.280    -649.297
  H      250.523    -893.060    -649.372
  H      251.216    -892.150    -650.758
  P      253.296    -893.600    -649.529
  C      253.672    -892.270    -651.738
  O      253.423    -893.530    -651.123
  C      253.920    -892.450    -653.242
  O      255.227    -893.050    -653.433
  C      252.898    -893.370    -653.941
  O      252.781    -892.940    -655.309
  C      253.607    -894.720    -653.877
  O      252.996    -895.650    -654.741
  C      255.027    -894.270    -654.198
  N      257.009    -898.830    -655.380
  C      256.051    -898.090    -655.969
  N      255.588    -896.880    -655.604
  C      256.235    -896.420    -654.510
  C      257.250    -897.050    -653.823
  C      257.639    -898.330    -654.290
  N      258.612    -899.080    -653.682
  N      257.667    -896.280    -652.754
  C      256.923    -895.190    -652.818
  N      256.034    -895.250    -653.857
  O      252.277    -894.820    -649.287
  O      254.584    -893.790    -648.802
  H      252.993    -895.310    -655.661
  H      252.443    -895.210    -648.412
  H      255.590    -898.530    -656.849
  H      256.982    -894.360    -652.130
  H      255.144    -894.020    -655.258
  H      253.549    -895.140    -652.863
  H      251.903    -893.360    -653.468
  H      253.962    -891.460    -653.720
  H      254.543    -891.820    -651.270
  H      252.796    -891.620    -651.584
  H      258.824    -900.000    -654.075
  H      259.073    -898.730    -652.858
  P      251.442    -892.200    -655.798
  C      252.847    -890.260    -656.842
  O      251.773    -890.650    -656.000
  O      250.574    -892.180    -654.443
  O      250.696    -892.870    -656.897
  H      249.622    -892.160    -654.679
  H      252.919    -889.193    -656.857
  H      252.671    -890.619    -657.834
  H      253.761    -890.674    -656.470

 6  7  8  9  10  11  12  13  14  15  25  28  32  33  34  35 0
 6-311+G(2d,p)
 ****
 36  37  40 0
 6-311+G(2d,p)
 ****
 1  2  3  4  5  16  17  18  19  20  21  22  23  24 0
 3-21G
 ****
 26  27  29  30  31  38  39 41  42  43  44  45  46  47  48 0
 3-21G
 ****


