%nproc=1
%NoSave
%Mem=1900MB
#P OB98/GEN NMR

erre ene a

0 1
  C     -417.139    -701.723     385.928
  O     -417.907    -702.871     385.611
  H     -417.018    -701.117     385.024
  H     -416.153    -702.023     386.283
  H     -417.650    -701.117     386.693
  P     -418.372    -703.788     386.838
  C     -417.268    -705.971     385.987
  O     -417.287    -704.960     386.981
  C     -416.114    -706.948     386.248
  O     -414.845    -706.293     386.011
  C     -416.062    -707.486     387.680
  O     -416.961    -708.570     387.873
  C     -414.618    -707.927     387.759
  O     -414.457    -709.191     387.068
  C     -413.887    -706.805     386.995
  N     -409.916    -704.797     389.404
  C     -409.995    -705.942     388.643
  N     -408.870    -706.662     388.514
  N     -411.105    -706.349     388.061
  C     -412.149    -705.529     388.291
  C     -412.195    -704.364     389.019
  C     -410.978    -703.907     389.643
  O     -410.842    -702.892     390.307
  N     -413.452    -703.808     389.010
  C     -414.171    -704.656     388.290
  N     -413.440    -705.729     387.839
  O     -419.657    -704.555     386.255
  O     -418.706    -703.051     388.097
  H     -413.503    -709.339     386.995
  H     -420.312    -704.662     386.970
  H     -409.053    -704.509     389.843
  H     -415.216    -704.526     388.073
  H     -413.012    -707.182     386.443
  H     -414.267    -708.089     388.785
  H     -408.012    -706.427     388.989
  H     -416.233    -706.679     388.402
  H     -408.900    -707.495     387.961
  H     -416.202    -707.774     385.538
  H     -417.122    -705.518     385.003
  H     -418.226    -706.499     385.994
  P     -417.273    -709.017     389.380
  C     -416.391    -711.398     388.806
  O     -416.308    -710.263     389.680
  O     -418.729    -709.683     389.273
  O     -417.243    -707.911     390.395
  H     -419.173    -709.649     390.126
  H     -415.695    -712.146     389.125
  H     -416.157    -711.096     387.806
  H     -417.383    -711.798     388.835

 6  7  8  9  10  11  12  13  14  15  26  29  33  34 0
 6-311+G(2d,p)
 ****
 36  38  39  40  41 0
 6-311+G(2d,p)
 ****
 1  2  3  4  5  16  17  18  19  20  21  22  23  24  25 0
 3-21G
 ****
 27  28  30  31  32  35  37  42  43  44  45  46  47 0
 3-21G
 ****
 48  49 0
 3-21G
 ****


