%nproc=1
%NoSave
%Mem=1900MB
#P OB98/GEN NMR

erre ene a

0 1
  C       90.335    -311.225    -196.117
  O       90.404    -310.430    -197.286
  H       90.459    -310.600    -195.230
  H       89.355    -311.707    -196.077
  H       91.109    -311.999    -196.140
  P       91.785    -309.656    -197.547
  C       92.310    -311.231    -199.542
  O       92.746    -310.700    -198.300
  C       93.449    -311.986    -200.219
  O       92.927    -312.874    -201.231
  C       94.467    -311.101    -200.932
  O       95.400    -310.531    -200.026
  C       95.130    -312.115    -201.850
  O       96.088    -312.890    -201.106
  C       93.941    -312.997    -202.261
  N       93.936    -313.926    -207.295
  C       94.577    -314.525    -206.265
  N       94.510    -314.236    -204.951
  C       93.661    -313.216    -204.735
  C       92.923    -312.521    -205.674
  C       93.084    -312.908    -207.013
  N       92.472    -312.240    -208.065
  N       92.170    -311.530    -205.071
  C       92.473    -311.614    -203.791
  N       93.363    -312.625    -203.539
  O       92.417    -309.549    -196.076
  O       91.651    -308.318    -198.191
  H       96.498    -313.510    -201.741
  H       92.211    -308.671    -195.704
  H       95.234    -315.345    -206.538
  H       92.073    -310.970    -203.016
  H       94.213    -314.057    -202.318
  H       95.664    -311.652    -202.686
  H       93.974    -310.334    -201.540
  H       93.941    -312.607    -199.459
  H       91.980    -310.414    -200.192
  H       92.999    -312.281    -208.934
  H       92.074    -311.344    -207.815
  H       91.464    -311.902    -199.358
  P       96.455    -309.472    -200.606
  C       95.174    -307.445    -199.637
  O       95.654    -308.093    -200.808
  O       96.695    -309.996    -202.101
  O       97.738    -309.375    -199.856
  H       97.648    -310.155    -202.247
  H       94.663    -306.546    -199.911
  H       95.998    -307.206    -198.998
  H       94.499    -308.095    -199.121

 6  7  8  9  10  11  12  13  14  15  25  28  32  33  34  35 0
 6-311+G(2d,p)
 ****
 36  39  40 0
 6-311+G(2d,p)
 ****
 1  2  3  4  5  16  17  18  19  20  21  22  23  24 0
 3-21G
 ****
 26  27  29  30  31  37  38  41  42  43  44  45  46  47  48 0
 3-21G
 ****


