%nproc=1
%NoSave
%Mem=1900MB
#P OB98/GEN NMR

erre ene a

0 1
  C      342.728    -245.822     -97.204
  O      341.906    -245.121     -96.297
  P      342.467    -244.247     -95.089
  C      342.161    -244.329     -92.494
  O      342.214    -245.045     -93.722
  C      341.746    -245.251     -91.338
  O      340.410    -245.750     -91.601
  C      342.670    -246.478     -91.233
  O      343.020    -246.835     -89.903
  C      341.934    -247.524     -92.066
  O      342.327    -248.860     -91.779
  C      340.477    -247.180     -91.779
  N      337.811    -250.965     -93.875
  C      338.471    -250.937     -92.663
  N      338.589    -252.115     -92.019
  N      338.999    -249.848     -92.157
  C      338.906    -248.772     -92.967
  C      338.273    -248.678     -94.187
  C      337.663    -249.876     -94.719
  O      337.164    -249.977     -95.843
  N      338.437    -247.441     -94.754
  C      339.198    -246.794     -93.894
  N      339.535    -247.570     -92.809
  O      342.150    -242.786     -95.115
  O      344.062    -244.405     -95.283
  H      341.887    -249.444     -92.419
  H      344.472    -243.558     -95.001
  H      337.492    -251.848     -94.253
  H      339.555    -245.776     -94.020
  H      340.128    -247.649     -90.859
  H      342.183    -247.341     -93.116
  H      338.320    -252.993     -92.456
  H      343.637    -246.272     -91.706
  H      339.269    -252.170     -91.269
  H      341.715    -244.673     -90.407
  H      341.418    -243.538     -92.631
  H      343.124    -243.854     -92.284
  P      344.325    -247.585     -89.377
  C      344.822    -249.831     -88.241
  O      343.959    -249.124     -89.105
  O      344.568    -247.015     -87.903
  O      345.545    -247.381     -90.217
  H      345.525    -246.893     -87.754
  H      344.637    -250.904     -88.355
  H      344.622    -249.544     -87.205
  H      345.870    -249.627     -88.486
  H      342.117    -246.330     -97.920
  H      343.320    -246.536     -96.670
  H      343.371    -245.132     -97.710

 3  4  5  6  7  8  9  10  11  12  23  26  30  31 0
 6-311+G(2d,p)
 ****
 33  35  36  37  38 0
 6-311+G(2d,p)
 ****
 1  2  13  14  15  16  17  18  19  20  21  22  24  25 0
 3-21G
 ****
 27  28  29  32  34  39  40  41  42  43  44  45  46  47  48  49 0
 3-21G
 ****


