%nproc=1
%NoSave
%Mem=1900MB
#P OB98/GEN NMR

erre ene a

0 1
  C       21.467    -181.047      89.981
  O       21.387    -181.606      91.278
  H       22.128    -181.669      89.371
  H       21.882    -180.036      90.032
  H       20.478    -181.021      89.519
  P       20.505    -180.796      92.347
  C       18.319    -181.640      91.239
  O       19.088    -180.518      91.644
  C       17.051    -181.751      92.081
  O       16.200    -180.603      91.877
  C       16.206    -182.984      91.783
  O       16.690    -184.115      92.489
  C       14.837    -182.529      92.272
  O       14.735    -182.646      93.707
  C       14.818    -181.056      91.845
  N       11.723    -178.054      89.215
  C       12.019    -178.069      90.563
  N       11.372    -177.166      91.335
  N       12.863    -178.901      91.114
  C       13.390    -179.785      90.235
  C       13.176    -179.875      88.878
  C       12.281    -178.913      88.274
  O       12.042    -178.795      87.076
  N       13.911    -180.895      88.328
  C       14.538    -181.438      89.353
  N       14.250    -180.803      90.533
  O       21.191    -179.348      92.375
  O       20.446    -181.392      93.712
  H       13.876    -182.292      93.994
  H       21.177    -179.014      93.293
  H       11.089    -177.372      88.841
  H       15.215    -182.281      89.293
  H       14.258    -180.432      92.552
  H       14.037    -183.142      91.856
  H       10.522    -176.714      91.031
  H       16.158    -183.180      90.705
  H       11.535    -177.227      92.332
  H       17.356    -181.741      93.135
  H       18.921    -182.546      91.366
  H       18.052    -181.532      90.182
  P       16.233    -185.569      91.993
  C       18.293    -185.674      90.414
  O       16.887    -185.827      90.548
  O       14.678    -185.364      91.671
  O       16.434    -186.658      92.991
  H       14.138    -185.774      92.372
  H       18.579    -185.877      89.403
  H       18.790    -186.358      91.070
  H       18.569    -184.672      90.668

 6  7  8  9  10  11  12  13  14  15  26  29  33  34 0
 6-311+G(2d,p)
 ****
 36  38  39  40  41 0
 6-311+G(2d,p)
 ****
 1  2  3  4  5  16  17  18  19  20  21  22  23  24  25 0
 3-21G
 ****
 27  28  30  31  32  35  37  42  43  44  45  46  47 0
 3-21G
 ****
 48  49 0
 3-21G
 ****


