%nproc=1
%NoSave
%Mem=1900MB
#P OB98/GEN NMR

erre ene a

0 1
  C     -343.501     132.142     210.334
  O     -343.464     133.552     210.350
  H     -344.543     131.818     210.364
  H     -342.989     131.748     211.217
  H     -343.037     131.743     209.429
  P     -342.083     134.296     210.023
  C     -342.568     134.355     207.491
  O     -342.319     135.116     208.664
  C     -342.770     135.270     206.280
  O     -343.975     136.063     206.487
  C     -341.612     136.249     206.038
  O     -341.539     136.486     204.625
  C     -342.103     137.490     206.755
  O     -341.398     138.640     206.341
  C     -343.593     137.451     206.409
  N     -344.397     138.292     207.294
  C     -344.474     139.639     206.966
  O     -343.884     140.136     206.007
  N     -345.222     140.420     207.805
  C     -345.832     140.000     208.951
  O     -346.463     140.752     209.684
  C     -345.678     138.572     209.272
  C     -344.981     137.794     208.441
  O     -340.867     133.433     210.027
  O     -341.993     135.459     211.119
  H     -341.794     139.443     206.741
  H     -341.059     135.650     211.329
  H     -345.297     141.398     207.575
  H     -346.142     138.211     210.178
  H     -344.850     136.737     208.648
  H     -343.761     137.788     205.376
  H     -341.959     137.393     207.837
  H     -340.654     135.885     206.415
  H     -342.950     134.646     205.396
  H     -343.470     133.759     207.661
  H     -341.726     133.680     207.310
  P     -340.217     136.166     203.774
  C     -341.112     134.946     201.689
  O     -340.596     136.165     202.214
  O     -339.477     134.949     204.224
  O     -339.306     137.475     203.933
  H     -338.366     137.231     203.849
  H     -341.326     135.068     200.648
  H     -342.010     134.685     202.209
  H     -340.388     134.168     201.816

 6  7  8  9  10  11  12  13  14  15  16  26  31  32  33  34  35 0
 6-311+G(2d,p)
 ****
 36  37 0
 6-311+G(2d,p)
 ****
 1  2  3  4  5  17  18  19  20  21  22  23  24  25 0
 3-21G
 ****
 27  28  29  30  38  39  40  41  42  43  44  45 0
 3-21G
 ****


