%nproc=1
%NoSave
%Mem=1900MB
#P OB98/GEN NMR

erre ene a

0 1
  C       93.178     -76.746     276.916
  O       94.111     -76.757     277.999
  P       93.621     -76.492     279.503
  C       94.460     -74.124     279.991
  O       93.322     -74.924     279.688
  C       94.155     -72.621     280.029
  O       93.210     -72.307     281.082
  C       95.378     -71.722     280.240
  O       95.115     -70.522     279.506
  C       95.334     -71.462     281.734
  O       96.100     -70.328     282.117
  C       93.821     -71.351     281.966
  N       93.455     -71.585     283.360
  C       93.745     -70.568     284.269
  O       94.339     -69.555     283.901
  N       93.400     -70.744     285.588
  C       92.902     -71.875     285.976
  N       92.606     -71.999     287.299
  C       92.658     -73.010     285.062
  C       92.944     -72.791     283.781
  O       94.494     -77.087     280.560
  O       92.158     -77.152     279.550
  H       95.835     -69.571     281.548
  H       91.977     -77.469     280.455
  H       92.264     -73.944     285.435
  H       92.796     -73.559     283.031
  H       93.460     -70.355     281.677
  H       95.735     -72.330     282.272
  H       96.315     -72.178     279.917
  H       93.666     -72.365     279.081
  H       92.811     -71.208     287.895
  H       95.226     -74.314     279.233
  H       92.321     -72.870     287.723
  H       94.872     -74.443     280.954
  P       96.011     -70.073     278.260
  C       97.440     -68.248     279.343
  O       97.413     -69.577     278.852
  O       95.353     -69.110     277.326
  O       96.391     -71.440     277.510
  H       96.690     -71.238     276.605
  H       98.364     -68.096     279.907
  H       96.588     -68.061     280.005
  H       97.415     -67.545     278.505
  H       93.694     -76.942     275.999
  H       92.705     -75.788     276.862
  H       92.437     -77.501     277.076

 3  4  5  6  7  8  9  10  11  12  13  23  27  28  29  30  32 0
 6-311+G(2d,p)
 ****
 34  35 0
 6-311+G(2d,p)
 ****
 1  2  14  15  16  17  18  19  20  21  22  24  25  26 0
 3-21G
 ****
 31  33  36  37  38  39  40  41  42  43  44  45  46 0
 3-21G
 ****


