%nproc=1
%NoSave
%Mem=1900MB
#P OB98/GEN NMR

erre ene a

0 1
  C     -721.745     185.509     706.799
  O     -720.512     186.127     707.195
  P     -720.422     187.587     707.857
  C     -718.821     188.515     706.037
  O     -719.024     188.246     707.413
  C     -717.388     188.992     705.773
  O     -717.148     190.265     706.397
  C     -716.289     188.086     706.348
  O     -716.135     186.888     705.603
  C     -715.079     189.016     706.282
  O     -714.467     188.993     704.975
  C     -715.716     190.401     706.540
  N     -715.363     190.949     707.837
  C     -714.554     192.082     707.835
  O     -714.103     192.523     706.783
  N     -714.261     192.686     709.041
  C     -714.655     192.136     710.158
  N     -714.352     192.780     711.318
  C     -715.396     190.851     710.201
  C     -715.717     190.334     709.016
  O     -720.666     187.605     709.335
  O     -721.516     188.468     707.079
  H     -721.813     189.198     707.659
  H     -714.060     188.106     704.865
  H     -715.673     190.407     711.153
  H     -716.280     189.400     708.975
  H     -715.411     191.110     705.761
  H     -714.311     188.739     707.009
  H     -716.519     187.854     707.391
  H     -717.257     189.101     704.687
  H     -713.849     193.665     711.239
  H     -719.516     189.313     705.735
  H     -714.633     192.454     712.219
  H     -719.056     187.617     705.456
  P     -716.564     185.526     706.351
  C     -714.504     185.645     707.932
  O     -715.235     184.887     706.987
  O     -716.918     184.524     705.138
  O     -717.716     185.660     707.295
  H     -717.694     183.975     705.383
  H     -713.979     184.949     708.606
  H     -715.166     186.282     708.531
  H     -713.773     186.260     707.412
  H     -721.543     184.543     706.386
  H     -722.229     186.117     706.063
  H     -722.383     185.406     707.652

 3  4  5  6  7  8  9  10  11  12  13  24  27  28  29  30  32 0
 6-311+G(2d,p)
 ****
 34  35 0
 6-311+G(2d,p)
 ****
 1  2  14  15  16  17  18  19  20  21  22  23  25  26 0
 3-21G
 ****
 31  33  36  37  38  39  40  41  42  43  44  45  46 0
 3-21G
 ****


