%nproc=1
%NoSave
%Mem=1900MB
#P OB98/GEN NMR

erre ene a

0 1
  C     -869.131    1326.451    -114.975
  O     -869.154    1326.817    -116.346
  H     -868.774    1325.430    -114.895
  H     -870.140    1326.502    -114.556
  H     -868.460    1327.108    -114.429
  P     -869.700    1328.293    -116.685
  C     -872.069    1327.310    -117.101
  O     -871.273    1328.217    -116.348
  C     -873.308    1328.016    -117.659
  O     -874.181    1328.395    -116.584
  C     -873.016    1329.279    -118.425
  O     -872.657    1328.973    -119.775
  C     -874.361    1329.984    -118.366
  O     -875.247    1329.441    -119.362
  C     -874.859    1329.617    -116.956
  N     -876.952    1332.269    -113.082
  C     -877.507    1331.466    -114.030
  N     -876.902    1330.851    -115.044
  C     -875.562    1331.084    -115.057
  C     -874.867    1331.885    -114.155
  C     -875.605    1332.496    -113.131
  N     -875.045    1333.298    -112.178
  N     -873.525    1331.916    -114.484
  C     -873.414    1331.109    -115.506
  N     -874.618    1330.613    -115.919
  O     -869.335    1328.818    -118.029
  O     -869.123    1329.124    -115.446
  H     -874.762    1329.452    -120.207
  H     -869.198    1328.614    -114.623
  H     -878.570    1331.315    -113.944
  H     -872.476    1330.836    -115.980
  H     -875.937    1329.410    -116.947
  H     -874.283    1331.060    -118.563
  H     -872.254    1329.900    -117.952
  H     -873.843    1327.295    -118.278
  H     -872.367    1326.459    -116.470
  H     -875.673    1333.828    -111.590
  H     -874.081    1333.564    -112.286
  H     -871.450    1326.936    -117.918
  P     -871.537    1329.814    -120.557
  C     -873.236    1330.511    -122.347
  O     -872.343    1330.962    -121.334
  O     -870.609    1328.988    -121.389
  O     -870.793    1330.624    -119.401
  H     -869.909    1330.957    -119.731
  H     -873.718    1331.353    -122.798
  H     -873.973    1329.868    -121.912
  H     -872.688    1329.973    -123.092

 6  7  8  9  10  11  12  13  14  15  25  28  32  33  34  35 0
 6-311+G(2d,p)
 ****
 36  39  40 0
 6-311+G(2d,p)
 ****
 1  2  3  4  5  16  17  18  19  20  21  22  23  24 0
 3-21G
 ****
 26  27  29  30  31  37  38  41  42  43  44  45  46  47 0
 3-21G
 ****
 48 0
 3-21G
 ****


