%nproc=1
%NoSave
%Mem=1900MB
#P OB98/GEN NMR

erre ene a

0 1
  C     -271.002    1104.654     162.488
  O     -269.607    1104.690     162.232
  P     -269.032    1103.667     161.119
  C     -267.105    1102.587     162.493
  O     -267.469    1103.479     161.453
  C     -265.594    1102.602     162.707
  O     -264.907    1102.176     161.513
  C     -265.022    1103.985     163.015
  O     -265.173    1104.333     164.388
  C     -263.553    1103.770     162.683
  O     -262.898    1103.106     163.786
  C     -263.630    1102.837     161.454
  N     -260.758    1106.052     158.808
  C     -260.470    1105.378     159.971
  N     -259.272    1105.635     160.544
  N     -261.290    1104.517     160.532
  C     -262.447    1104.366     159.846
  C     -262.844    1104.980     158.674
  C     -261.935    1105.929     158.076
  O     -262.145    1106.605     157.069
  N     -264.097    1104.557     158.288
  C     -264.450    1103.696     159.217
  N     -263.512    1103.577     160.207
  O     -269.017    1104.554     159.783
  O     -269.824    1102.413     160.950
  H     -263.311    1102.217     163.855
  H     -268.941    1103.973     159.002
  H     -260.089    1106.708     158.407
  H     -265.389    1103.157     159.211
  H     -262.850    1102.078     161.485
  H     -263.016    1104.714     162.520
  H     -258.628    1106.334     160.199
  H     -265.432    1104.749     162.357
  H     -259.071    1105.197     161.441
  H     -265.353    1101.891     163.511
  H     -267.433    1101.571     162.246
  H     -267.624    1102.885     163.423
  P     -266.217    1105.515     164.707
  C     -264.235    1107.056     165.368
  O     -265.459    1106.481     165.755
  O     -267.325    1104.782     165.600
  O     -266.810    1106.173     163.506
  H     -268.177    1105.244     165.539
  H     -263.991    1107.875     166.082
  H     -264.284    1107.477     164.357
  H     -263.428    1106.313     165.408
  H     -271.245    1105.376     163.239
  H     -271.277    1103.678     162.829
  H     -271.536    1104.881     161.589

 3  4  5  6  7  8  9  10  11  12  23  26  30  31 0
 6-311+G(2d,p)
 ****
 33  35  36  37  38 0
 6-311+G(2d,p)
 ****
 1  2  13  14  15  16  17  18  19  20  21  22  24  25 0
 3-21G
 ****
 27  28  29  32  34  39  40  41  42  43  44  45  46  47  48  49 0
 3-21G
 ****


