%nproc=1
%NoSave
%Mem=1900MB
#P OB98/GEN NMR

erre ene a

0 1
  C      268.315     -25.536      91.508
  O      268.091     -26.830      92.038
  P      266.785     -27.677      91.633
  C      265.872     -27.551      94.049
  O      265.660     -27.222      92.679
  C      264.527     -27.745      94.749
  O      263.813     -26.496      94.782
  C      263.598     -28.741      94.066
  O      264.000     -30.077      94.317
  C      262.254     -28.332      94.661
  O      262.104     -28.885      95.978
  C      262.398     -26.799      94.748
  N      261.737     -26.101      93.648
  C      260.359     -25.901      93.776
  O      259.749     -26.295      94.771
  N      259.693     -25.231      92.779
  C      260.347     -24.814      91.735
  N      259.655     -24.094      90.811
  C      261.790     -25.051      91.535
  C      262.416     -25.687      92.523
  O      266.996     -29.149      91.543
  O      266.282     -27.011      90.274
  H      262.793     -28.474      96.533
  H      266.693     -27.404      89.464
  H      262.283     -24.697      90.643
  H      263.476     -25.885      92.463
  H      261.989     -26.433      95.696
  H      261.396     -28.654      94.061
  H      263.587     -28.567      92.980
  H      264.726     -28.058      95.784
  H      258.713     -23.807      91.068
  H      266.407     -26.725      94.526
  H      260.123     -23.501      90.140
  H      266.486     -28.456      94.113
  P      263.408     -31.220      93.361
  C      262.440     -32.976      95.010
  O      262.177     -31.867      94.161
  O      264.543     -32.347      93.394
  O      263.099     -30.765      91.974
  H      265.085     -32.307      92.580
  H      261.568     -33.137      95.647
  H      263.310     -32.780      95.645
  H      262.609     -33.871      94.408
  H      269.231     -25.145      91.898
  H      267.506     -24.892      91.784
  H      268.377     -25.593      90.441

 3  4  5  6  7  8  9  10  11  12  13  23  27  28  29  30  32 0
 6-311+G(2d,p)
 ****
 34  35 0
 6-311+G(2d,p)
 ****
 1  2  14  15  16  17  18  19  20  21  22  24  25  26 0
 3-21G
 ****
 31  33  36  37  38  39  40  41  42  43  44  45  46 0
 3-21G
 ****


