%nproc=1
%NoSave
%Mem=1900MB
#P OB98/GEN NMR

erre ene a

0 1
  C       78.005      75.441      41.644
  O       79.105      75.006      40.863
  P       78.812      74.183      39.519
  C       78.805      71.574      39.196
  O       78.421      72.695      39.974
  C       79.236      70.420      40.107
  O       80.546      70.724      40.664
  C       78.287      70.149      41.283
  O       78.286      68.734      41.508
  C       78.964      70.872      42.434
  O       78.564      70.378      43.702
  C       80.440      70.624      42.098
  N       81.351      71.569      42.747
  C       82.094      71.116      43.831
  O       82.012      69.979      44.292
  N       82.930      72.041      44.407
  C       83.043      73.354      44.054
  O       83.795      74.139      44.615
  C       82.199      73.786      42.931
  C       81.413      72.888      42.334
  O       80.286      74.035      38.920
  O       77.825      74.841      38.615
  H       80.965      73.921      39.604
  H       79.145      70.772      44.378
  H       83.506      71.723      45.173
  H       82.249      74.825      42.631
  H       80.780      73.184      41.505
  H       80.720      69.600      42.371
  H       78.717      71.939      42.391
  H       77.269      70.497      41.090
  H       79.348      69.519      39.489
  H       79.644      71.851      38.551
  H       77.970      71.276      38.556
  P       76.863      67.986      41.617
  C       74.869      68.143      43.307
  O       76.238      68.353      43.045
  O       77.356      66.471      41.822
  O       75.971      68.151      40.431
  H       78.042      66.386      42.503
  H       74.714      68.129      44.391
  H       74.523      67.193      42.895
  H       74.284      68.963      42.880
  H       78.364      75.972      42.501
  H       77.436      74.593      41.962
  H       77.385      76.087      41.058

 3  4  5  6  7  8  9  10  11  12  13  24  28  29  30  31  32 0
 6-311+G(2d,p)
 ****
 33  34 0
 6-311+G(2d,p)
 ****
 1  2  14  15  16  17  18  19  20  21  22  23  25  26  27 0
 3-21G
 ****
 35  36  37  38  39  40  41  42  43  44  45 0
 3-21G
 ****


