%nproc=1
%NoSave
%Mem=1900MB
#P OB98/GEN NMR

erre ene a

0 1
  C       45.495     214.439    -196.960
  O       44.372     213.640    -196.653
  H       45.430     214.743    -198.008
  H       46.416     213.867    -196.820
  H       45.517     215.336    -196.337
  P       44.134     213.196    -195.131
  C       41.871     214.406    -195.353
  O       42.555     213.257    -194.869
  C       40.363     214.173    -195.301
  O       39.975     213.744    -193.976
  C       39.537     215.421    -195.582
  O       39.526     215.739    -196.960
  C       38.194     215.010    -195.003
  O       37.456     214.204    -195.929
  C       38.613     214.180    -193.770
  N       38.485     214.941    -192.527
  C       37.189     215.176    -192.081
  O       36.186     214.773    -192.666
  N       37.077     215.952    -190.959
  C       38.102     216.611    -190.344
  O       37.929     217.486    -189.502
  C       39.452     216.276    -190.819
  C       39.580     215.479    -191.881
  O       44.974     213.896    -194.115
  O       44.432     211.621    -195.149
  H       45.321     211.459    -194.781
  H       38.006     213.408    -196.087
  H       36.137     216.162    -190.654
  H       40.297     216.723    -190.309
  H       40.565     215.244    -192.272
  H       37.998     213.275    -193.690
  H       37.581     215.878    -194.756
  H       39.931     216.263    -195.002
  H       40.112     213.371    -196.006
  H       42.175     214.587    -196.389
  H       42.152     215.271    -194.743
  P       39.571     217.266    -197.436
  C       40.698     216.536    -199.626
  O       39.646     217.292    -199.037
  O       40.584     218.119    -196.748
  O       38.090     217.806    -197.146
  H       38.152     218.643    -196.648
  H       40.649     216.627    -200.691
  H       40.595     215.507    -199.351
  H       41.640     216.906    -199.279

 6  7  8  9  10  11  12  13  14  15  16  27  31  32  33  34  35 0
 6-311+G(2d,p)
 ****
 36  37 0
 6-311+G(2d,p)
 ****
 1  2  3  4  5  17  18  19  20  21  22  23  24  25 0
 3-21G
 ****
 26  28  29  30  38  39  40  41  42  43  44  45 0
 3-21G
 ****


