%nproc=1
%NoSave
%Mem=1900MB
#P OB98/GEN NMR

erre ene a

0 1
  C     -352.913     -60.423     -36.284
  O     -351.998     -60.461     -35.204
  P     -350.590     -59.690     -35.290
  C     -350.075     -60.511     -32.896
  O     -349.636     -60.445     -34.243
  C     -349.854     -61.915     -32.340
  O     -350.740     -62.840     -33.004
  C     -348.453     -62.465     -32.557
  O     -347.530     -61.892     -31.641
  C     -348.697     -63.962     -32.389
  O     -348.766     -64.302     -30.998
  C     -350.085     -64.130     -33.046
  N     -350.010     -64.636     -34.414
  C     -349.947     -66.028     -34.557
  O     -349.972     -66.770     -33.572
  N     -349.898     -66.557     -35.821
  C     -349.890     -65.767     -36.853
  N     -349.912     -66.348     -38.086
  C     -349.896     -64.297     -36.742
  C     -349.962     -63.806     -35.509
  O     -350.669     -58.208     -35.113
  O     -349.973     -60.135     -36.701
  H     -348.869     -65.267     -30.943
  H     -350.251     -59.554     -37.451
  H     -349.871     -63.683     -37.633
  H     -349.990     -62.736     -35.342
  H     -350.707     -64.806     -32.448
  H     -347.919     -64.585     -32.845
  H     -348.115     -62.261     -33.579
  H     -350.105     -61.909     -31.269
  H     -350.088     -67.346     -38.112
  H     -351.145     -60.277     -32.861
  H     -350.191     -65.829     -38.910
  H     -349.536     -59.764     -32.299
  P     -346.105     -61.433     -32.215
  C     -345.431     -60.592     -29.853
  O     -345.107     -61.425     -30.955
  O     -346.332     -59.878     -32.555
  O     -345.634     -62.204     -33.404
  H     -346.468     -59.760     -33.512
  H     -344.798     -60.882     -29.007
  H     -346.478     -60.717     -29.569
  H     -345.229     -59.547     -30.099
  H     -353.783     -60.993     -36.034
  H     -352.453     -60.838     -37.156
  H     -353.194     -59.409     -36.478

 3  4  5  6  7  8  9  10  11  12  13  23  27  28  29  30  32 0
 6-311+G(2d,p)
 ****
 34  35 0
 6-311+G(2d,p)
 ****
 1  2  14  15  16  17  18  19  20  21  22  24  25  26 0
 3-21G
 ****
 31  33  36  37  38  39  40  41  42  43  44  45  46 0
 3-21G
 ****


