%nproc=1
%NoSave
%Mem=1900MB
#P OB98/GEN NMR

erre ene a

0 1
  C       51.648       7.313      32.310
  O       52.574       6.248      32.382
  H       52.200       8.256      32.298
  H       50.982       7.309      33.176
  H       51.063       7.241      31.389
  P       52.022       4.756      32.573
  C       51.380       4.829      35.066
  O       50.907       4.828      33.726
  C       50.233       4.576      36.045
  O       49.446       5.791      36.159
  C       49.298       3.440      35.614
  O       48.886       2.729      36.783
  C       48.130       4.187      35.006
  O       46.948       3.409      35.025
  C       48.079       5.463      35.851
  N       47.403       6.545      35.137
  C       46.177       6.230      34.542
  O       45.711       5.094      34.644
  N       45.540       7.181      33.789
  C       46.101       8.333      33.599
  N       45.434       9.217      32.810
  C       47.406       8.701      34.184
  C       47.994       7.771      34.936
  O       53.051       3.693      32.765
  O       51.158       4.502      31.249
  H       46.650       3.293      35.953
  H       51.717       4.105      30.556
  H       47.835       9.672      33.990
  H       48.959       7.948      35.396
  H       47.553       5.284      36.798
  H       48.354       4.434      33.961
  H       49.761       2.752      34.901
  H       50.659       4.380      37.037
  H       44.555       8.912      32.411
  H       51.822       5.811      35.265
  H       45.790      10.126      32.556
  H       52.153       4.064      35.187
  P       49.552       1.318      37.158
  C       47.441      -0.111      36.936
  O       48.742       0.143      36.418
  O       49.769       1.097      38.619
  O       50.955       1.340      36.381
  H       51.607       0.811      36.879
  H       46.985      -0.904      36.382
  H       46.844       0.773      36.850
  H       47.516      -0.392      37.966

 6  7  8  9  10  11  12  13  14  15  16  26  30  31  32  33  35 0
 6-311+G(2d,p)
 ****
 37  38 0
 6-311+G(2d,p)
 ****
 1  2  3  4  5  17  18  19  20  21  22  23  24  25 0
 3-21G
 ****
 27  28  29  34  36  39  40  41  42  43  44  45  46 0
 3-21G
 ****


