%nproc=1
%NoSave
%Mem=1900MB
#P OB98/GEN NMR

erre ene a

0 1
  C     -105.667    -204.039    -307.772
  O     -106.452    -202.994    -308.349
  P     -107.154    -203.240    -309.769
  C     -106.776    -200.766    -310.344
  O     -107.705    -201.839    -310.328
  C     -107.273    -199.571    -311.174
  O     -107.300    -199.909    -312.593
  C     -108.681    -199.086    -310.802
  O     -108.683    -197.662    -310.960
  C     -109.548    -199.745    -311.859
  O     -110.820    -199.128    -311.981
  C     -108.627    -199.631    -313.078
  N     -109.007    -200.540    -314.149
  C     -109.774    -200.014    -315.193
  O     -110.186    -198.851    -315.130
  N     -110.077    -200.823    -316.260
  C     -109.768    -202.085    -316.214
  N     -110.069    -202.849    -317.298
  C     -109.121    -202.714    -315.046
  C     -108.751    -201.888    -314.072
  O     -108.138    -204.367    -309.813
  O     -105.906    -203.536    -310.737
  H     -111.311    -199.550    -312.719
  H     -106.176    -204.195    -311.409
  H     -108.965    -203.784    -315.015
  H     -108.261    -202.247    -313.180
  H     -108.626    -198.608    -313.470
  H     -109.710    -200.799    -311.592
  H     -108.967    -199.332    -309.774
  H     -106.554    -198.750    -311.049
  H     -110.537    -202.413    -318.082
  H     -105.825    -201.118    -310.754
  H     -109.820    -203.829    -317.357
  H     -106.561    -200.460    -309.313
  P     -108.191    -196.743    -309.741
  C     -109.786    -194.730    -310.174
  O     -108.459    -195.212    -310.139
  O     -106.591    -196.845    -309.880
  O     -108.614    -197.173    -308.377
  H     -106.189    -196.669    -309.007
  H     -109.763    -193.637    -310.179
  H     -110.350    -195.061    -309.297
  H     -110.285    -195.083    -311.083
  H     -105.274    -203.712    -306.832
  H     -104.860    -204.284    -308.430
  H     -106.279    -204.903    -307.621

 3  4  5  6  7  8  9  10  11  12  13  23  27  28  29  30  32 0
 6-311+G(2d,p)
 ****
 34  35 0
 6-311+G(2d,p)
 ****
 1  2  14  15  16  17  18  19  20  21  22  24  25  26 0
 3-21G
 ****
 31  33  36  37  38  39  40  41  42  43  44  45  46 0
 3-21G
 ****


