%nproc=1
%NoSave
%Mem=1900MB
#P OB98/GEN NMR

erre ene a

0 1
  C      122.664      62.326    -125.596
  O      122.555      60.977    -125.186
  H      121.834      62.891    -125.160
  H      122.613      62.411    -126.685
  H      123.604      62.756    -125.233
  P      123.507      59.896    -125.897
  C      122.029      57.848    -125.346
  O      123.263      58.520    -125.098
  C      122.133      56.362    -124.994
  O      122.924      55.672    -125.977
  C      122.824      56.097    -123.662
  O      122.084      56.503    -122.531
  C      123.251      54.641    -123.799
  O      122.237      53.714    -123.424
  C      123.525      54.532    -125.319
  N      124.946      54.414    -125.615
  C      125.541      53.206    -125.279
  O      124.932      52.278    -124.739
  N      126.876      53.108    -125.538
  C      127.672      54.093    -126.047
  O      128.879      53.956    -126.217
  C      126.993      55.362    -126.359
  C      125.682      55.465    -126.137
  O      124.952      60.275    -126.018
  O      122.794      59.627    -127.304
  H      122.069      53.846    -122.470
  H      123.413      59.189    -127.939
  H      127.324      52.231    -125.312
  H      127.593      56.175    -126.764
  H      125.154      56.390    -126.358
  H      123.025      53.643    -125.728
  H      124.128      54.420    -123.186
  H      123.749      56.687    -123.636
  H      121.123      55.932    -125.008
  H      121.803      57.950    -126.415
  H      121.229      58.324    -124.771
  P      122.471      57.765    -121.634
  C      121.944      56.143    -119.669
  O      121.956      57.487    -120.133
  O      122.245      59.117    -122.233
  O      124.065      57.566    -121.483
  H      124.470      58.456    -121.458
  H      121.580      56.116    -118.663
  H      122.937      55.746    -119.700
  H      121.306      55.555    -120.295

 6  7  8  9  10  11  12  13  14  15  16  26  31  32  33  34  35 0
 6-311+G(2d,p)
 ****
 36  37 0
 6-311+G(2d,p)
 ****
 1  2  3  4  5  17  18  19  20  21  22  23  24  25 0
 3-21G
 ****
 27  28  29  30  38  39  40  41  42  43  44  45 0
 3-21G
 ****


