%nproc=1
%NoSave
%Mem=1900MB
#P OB98/GEN NMR

erre ene a

0 1
  C       81.999     129.118      13.694
  O       82.567     130.302      14.212
  H       82.779     128.556      13.173
  H       81.208     129.358      12.979
  H       81.598     128.495      14.497
  P       81.666     131.251      15.138
  C       82.362     130.313      17.435
  O       81.328     130.417      16.465
  C       81.768     129.942      18.790
  O       82.819     129.747      19.762
  C       80.853     131.012      19.376
  O       79.599     131.014      18.726
  C       80.827     130.585      20.836
  O       79.923     129.488      21.037
  C       82.289     130.129      21.052
  N       83.119     131.159      21.679
  C       83.533     130.904      22.982
  O       83.232     129.884      23.597
  N       84.274     131.891      23.576
  C       84.552     133.113      23.035
  O       85.025     134.044      23.679
  C       84.154     133.296      21.632
  C       83.453     132.333      21.032
  O       80.491     131.882      14.471
  O       82.703     132.353      15.666
  H       82.592     133.173      15.148
  H       79.021     129.862      20.992
  H       84.539     131.736      24.537
  H       84.413     134.228      21.146
  H       83.123     132.458      20.007
  H       82.322     129.234      21.686
  H       80.505     131.391      21.498
  H       81.331     131.995      19.304
  H       81.231     128.991      18.679
  H       82.866     131.282      17.511
  H       83.086     129.560      17.108
  P       78.465     132.071      19.118
  C       79.322     133.894      17.534
  O       79.055     133.543      18.885
  O       77.838     131.860      20.456
  O       77.376     131.932      17.951
  H       76.499     131.774      18.350
  H       79.710     134.890      17.494
  H       78.417     133.841      16.966
  H       80.040     133.215      17.124

 6  7  8  9  10  11  12  13  14  15  16  27  31  32  33  34  35 0
 6-311+G(2d,p)
 ****
 36  37 0
 6-311+G(2d,p)
 ****
 1  2  3  4  5  17  18  19  20  21  22  23  24  25 0
 3-21G
 ****
 26  28  29  30  38  39  40  41  42  43  44  45 0
 3-21G
 ****


