%nproc=1
%NoSave
%Mem=1900MB
#P OB98/GEN NMR

erre ene a

0 1
  C      -79.471     458.441     217.654
  O      -80.213     457.645     218.562
  P      -79.406     456.721     219.596
  C      -79.346     454.637     218.010
  O      -79.764     455.200     219.245
  C      -78.856     453.207     218.231
  O      -77.714     453.179     219.117
  C      -79.884     452.295     218.893
  O      -80.866     451.851     217.950
  C      -79.015     451.177     219.436
  O      -78.738     450.200     218.421
  C      -77.737     451.940     219.839
  N      -77.636     452.141     221.278
  C      -77.959     451.047     222.080
  O      -78.329     449.974     221.612
  N      -77.867     451.247     223.425
  C      -77.543     452.416     224.048
  O      -77.543     452.541     225.269
  C      -77.257     453.549     223.164
  C      -77.307     453.359     221.844
  O      -80.120     456.980     220.997
  O      -77.933     456.991     219.654
  H      -78.223     450.644     217.720
  H      -79.460     456.952     221.723
  H      -78.073     450.447     224.031
  H      -76.999     454.500     223.622
  H      -77.108     454.199     221.159
  H      -76.848     451.385     219.503
  H      -79.503     450.642     220.263
  H      -80.377     452.821     219.726
  H      -78.551     452.787     217.259
  H      -78.525     455.251     217.594
  H      -80.182     454.656     217.304
  P      -82.379     452.337     218.194
  C      -82.551     451.163     220.526
  O      -83.011     451.248     219.186
  O      -83.030     452.011     216.753
  O      -82.481     453.771     218.596
  H      -82.612     451.224     216.334
  H      -82.285     452.156     220.928
  H      -81.671     450.515     220.559
  H      -83.322     450.740     221.140
  H      -80.144     458.997     217.035
  H      -78.861     457.810     217.042
  H      -78.848     459.118     218.200

 3  4  5  6  7  8  9  10  11  12  13  23  28  29  30  31  32 0
 6-311+G(2d,p)
 ****
 33  34 0
 6-311+G(2d,p)
 ****
 1  2  14  15  16  17  18  19  20  21  22  24  25  26 0
 3-21G
 ****
 27  35  36  37  38  39  40  41  42  43  44  45 0
 3-21G
 ****


