%nproc=1
%NoSave
%Mem=1900MB
#P OB98/GEN NMR

erre ene a

0 1
  C      156.388     299.036     -16.143
  O      155.250     298.846     -16.969
  P      155.472     298.845     -18.559
  C      156.128     296.364     -18.884
  O      156.574     297.713     -18.863
  C      156.129     295.817     -20.310
  O      157.484     295.859     -20.836
  C      155.628     294.365     -20.430
  O      154.755     294.260     -21.565
  C      156.895     293.586     -20.748
  O      156.611     292.378     -21.445
  C      157.669     294.624     -21.556
  N      161.027     291.919     -24.195
  C      159.691     292.169     -24.451
  N      159.166     291.560     -25.538
  N      158.935     292.937     -23.712
  C      159.600     293.504     -22.679
  C      160.922     293.344     -22.323
  C      161.729     292.438     -23.117
  O      162.889     292.110     -22.882
  N      161.237     294.098     -21.217
  C      160.109     294.710     -20.902
  N      159.075     294.345     -21.731
  O      156.260     300.221     -18.807
  O      154.228     298.777     -19.376
  H      156.102     291.808     -20.838
  H      155.772     300.765     -19.456
  H      161.553     291.303     -24.785
  H      159.988     295.392     -20.075
  H      157.223     294.740     -22.553
  H      157.408     293.336     -19.813
  H      159.698     290.983     -26.175
  H      155.126     293.993     -19.537
  H      158.199     291.742     -25.761
  H      155.522     296.488     -20.940
  H      155.114     296.310     -18.476
  H      156.793     295.761     -18.257
  P      153.655     293.090     -21.494
  C      151.856     294.823     -20.725
  O      152.541     293.605     -20.465
  O      154.402     291.925     -20.692
  O      153.156     292.649     -22.829
  H      154.014     291.059     -20.912
  H      152.070     295.198     -21.733
  H      152.163     295.568     -19.991
  H      150.780     294.648     -20.635
  H      156.091     299.013     -15.115
  H      156.835     299.983     -16.364
  H      157.096     298.255     -16.327

 3  4  5  6  7  8  9  10  11  12  23  26  30  31  33  0
 6-311+G(2d,p)
 ****
 35  36  37  38 0
 6-311+G(2d,p)
 ****
 1  2  13  14  15  16  17  18  19  20  21  22  24  25  27  28  29 0
 3-21G
 ****
 32  34  39  40  41  42  43  44  45  46  47  48  49 0
 3-21G
 ****


