%nproc=1
%NoSave
%Mem=1900MB
#P OB98/GEN NMR

erre ene a

0 1
  C     -130.026     328.829     165.236
  O     -131.264     328.607     165.890
  P     -132.553     328.138     165.069
  C     -133.389     330.616     165.295
  O     -133.306     329.435     164.527
  C     -133.231     331.826     164.362
  O     -132.064     331.665     163.533
  C     -134.442     331.988     163.447
  O     -135.373     332.901     164.004
  C     -133.817     332.476     162.154
  O     -133.567     333.892     162.219
  C     -132.481     331.695     162.141
  N     -132.491     330.308     161.637
  C     -131.337     329.771     161.074
  O     -130.272     330.377     160.992
  N     -131.454     328.497     160.578
  C     -132.575     327.720     160.634
  O     -132.741     326.695     159.983
  C     -133.660     328.235     161.475
  C     -133.580     329.491     161.911
  O     -133.530     327.593     166.213
  O     -132.302     327.113     164.011
  H     -132.905     334.098     161.534
  H     -133.481     326.621     166.272
  H     -130.662     328.155     160.043
  H     -134.510     327.595     161.664
  H     -134.393     329.909     162.502
  H     -131.716     332.238     161.576
  H     -134.487     332.324     161.310
  H     -134.913     331.014     163.263
  H     -133.093     332.726     164.972
  H     -132.607     330.621     166.061
  H     -134.351     330.660     165.813
  P     -136.815     332.382     164.462
  C     -138.027     334.080     162.970
  O     -137.791     332.711     163.231
  O     -137.284     332.864     165.795
  O     -136.659     330.786     164.424
  H     -136.477     330.452     165.326
  H     -138.550     334.172     162.015
  H     -137.084     334.630     162.913
  H     -138.656     334.502     163.759
  H     -129.294     329.135     165.953
  H     -130.145     329.595     164.498
  H     -129.705     327.924     164.763

 3  4  5  6  7  8  9  10  11  12  13  23  28  29  30  31  32 0
 6-311+G(2d,p)
 ****
 33  34 0
 6-311+G(2d,p)
 ****
 1  2  14  15  16  17  18  19  20  21  22  24  25  26  27 0
 3-21G
 ****
 35  36  37  38  39  40  41  42  43  44  45 0
 3-21G
 ****


