%nproc=1
%NoSave
%Mem=1900MB
#P OB98/GEN NMR

erre ene a

0 1
  C      278.202    -521.958     170.713
  O      278.910    -520.726     170.741
  P      280.355    -520.720     171.440
  C      280.576    -518.269     170.617
  O      280.696    -519.177     171.710
  C      280.343    -516.851     171.123
  O      281.246    -516.566     172.209
  C      280.590    -515.762     170.092
  O      279.486    -515.598     169.216
  C      280.767    -514.544     170.985
  O      279.478    -514.027     171.362
  C      281.491    -515.135     172.212
  N      285.163    -511.684     172.674
  C      283.791    -511.537     172.755
  N      283.339    -510.292     173.025
  N      282.945    -512.514     172.585
  C      283.541    -513.706     172.361
  C      284.891    -513.982     172.256
  C      285.817    -512.881     172.393
  O      287.034    -512.940     172.267
  N      285.111    -515.318     172.040
  C      283.908    -515.856     172.049
  N      282.919    -514.914     172.211
  O      281.341    -521.112     170.240
  O      280.501    -521.642     172.602
  H      278.936    -513.988     170.551
  H      282.152    -521.522     170.597
  H      285.769    -510.901     172.832
  H      283.706    -516.914     171.943
  H      281.072    -514.740     173.143
  H      281.308    -513.729     170.494
  H      283.943    -509.530     173.294
  H      281.517    -515.947     169.535
  H      282.338    -510.172     173.124
  H      279.315    -516.789     171.510
  H      279.728    -518.568     169.993
  H      281.491    -518.319     170.017
  P      279.822    -515.447     167.651
  C      277.232    -515.585     167.482
  O      278.432    -515.048     166.961
  O      280.069    -516.956     167.186
  O      280.988    -514.564     167.354
  H      280.656    -516.978     166.403
  H      277.275    -515.672     168.572
  H      277.053    -516.571     167.046
  H      276.405    -514.925     167.215
  H      277.262    -521.818     170.221
  H      278.034    -522.296     171.714
  H      278.777    -522.688     170.182

 3  4  5  6  7  8  9  10  11  12  23  26  30  31  33  0
 6-311+G(2d,p)
 ****
 35  36  37  38 0
 6-311+G(2d,p)
 ****
 1  2  13  14  15  16  17  18  19  20  21  22  24  25  27  28  29 0
 3-21G
 ****
 32  34  39  40  41  42  43  44  45  46  47  48  49 0
 3-21G
 ****


