%nproc=1
%NoSave
%Mem=1900MB
#P OB98/GEN NMR

erre ene a

0 1
  C     -365.705    -847.110     319.940
  O     -364.438    -846.732     319.415
  P     -364.054    -847.069     317.901
  C     -362.734    -849.164     318.594
  O     -362.695    -847.920     317.909
  C     -362.875    -850.319     317.605
  O     -364.108    -850.216     316.868
  C     -361.783    -850.366     316.551
  O     -360.544    -850.805     317.078
  C     -362.410    -851.299     315.524
  O     -362.245    -852.669     315.916
  C     -363.897    -850.889     315.599
  N     -364.308    -850.060     314.474
  C     -365.005    -850.709     313.455
  O     -365.168    -851.925     313.492
  N     -365.488    -849.958     312.408
  C     -365.188    -848.696     312.330
  N     -365.740    -847.994     311.311
  C     -364.313    -848.010     313.310
  C     -363.935    -848.741     314.359
  O     -364.062    -845.907     316.967
  O     -365.145    -848.161     317.459
  H     -365.539    -847.885     316.609
  H     -361.294    -852.789     316.123
  H     -364.035    -846.980     313.157
  H     -363.307    -848.316     315.130
  H     -364.536    -851.782     315.625
  H     -361.960    -851.186     314.533
  H     -361.659    -849.370     316.110
  H     -362.896    -851.256     318.178
  H     -366.346    -848.490     310.675
  H     -363.589    -849.162     319.279
  H     -365.837    -846.980     311.340
  H     -361.821    -849.278     319.190
  P     -359.221    -850.114     316.490
  C     -359.581    -851.257     314.191
  O     -358.706    -851.023     315.277
  O     -358.130    -850.352     317.637
  O     -359.363    -848.658     316.174
  H     -357.540    -849.578     317.701
  H     -358.989    -851.576     313.336
  H     -360.135    -850.356     313.924
  H     -360.280    -852.059     314.459
  H     -365.775    -846.800     320.962
  H     -365.812    -848.173     319.882
  H     -366.481    -846.641     319.371

 3  4  5  6  7  8  9  10  11  12  13  24  27  28  29  30  32 0
 6-311+G(2d,p)
 ****
 34  35 0
 6-311+G(2d,p)
 ****
 1  2  14  15  16  17  18  19  20  21  22  23  25  26 0
 3-21G
 ****
 31  33  36  37  38  39  40  41  42  43  44  45  46 0
 3-21G
 ****


