%nproc=1
%NoSave
%Mem=1900MB
#P OB98/GEN NMR

erre ene a

0 1
  C     -650.578     339.006      83.447
  O     -651.159     339.067      84.751
  P     -650.485     338.380      86.025
  C     -651.199     340.069      87.831
  O     -650.101     339.507      87.103
  C     -651.514     341.505      87.384
  O     -651.982     341.531      86.020
  C     -652.578     342.200      88.226
  O     -652.056     342.673      89.449
  C     -653.029     343.308      87.246
  O     -652.126     344.428      87.310
  C     -652.945     342.592      85.894
  N     -657.036     343.508      82.983
  C     -655.915     344.206      83.196
  N     -654.867     343.911      84.000
  C     -655.059     342.721      84.589
  C     -656.159     341.872      84.459
  C     -657.195     342.316      83.614
  N     -658.358     341.586      83.401
  N     -656.014     340.756      85.242
  C     -654.830     340.882      85.814
  N     -654.216     342.063      85.439
  O     -649.352     337.460      85.704
  O     -651.669     337.566      86.741
  H     -651.226     344.095      87.094
  H     -651.310     336.797      87.217
  H     -655.850     345.152      82.666
  H     -654.382     340.187      86.482
  H     -652.571     343.271      85.115
  H     -654.023     343.699      87.492
  H     -653.412     341.536      88.400
  H     -650.562     342.075      87.432
  H     -650.939     340.061      88.905
  H     -659.060     341.986      82.817
  H     -658.491     340.721      83.913
  H     -652.081     339.416      87.682
  P     -651.784     341.642      90.658
  C     -649.332     342.167      91.230
  O     -650.209     341.259      90.618
  O     -652.731     340.480      90.720
  O     -651.872     342.565      91.942
  H     -652.187     342.014      92.716
  H     -649.143     343.013      90.548
  H     -648.388     341.672      91.429
  H     -649.748     342.553      92.165
  H     -651.200     339.533      82.754
  H     -650.492     337.984      83.142
  H     -649.607     339.455      83.468

 3  4  5  6  7  8  9  10  11  12  22  25  29  30  31  32 0
 6-311+G(2d,p)
 ****
 33  36  37 0
 6-311+G(2d,p)
 ****
 1  2  13  14  15  16  17  18  19  20  21  23  24  26 0
 3-21G
 ****
 27  28  34  35  38  39  40  41  42  43  44  45  46  47  48 0
 3-21G
 ****


