%nproc=1
%NoSave
%Mem=1900MB
#P OB98/GEN NMR

erre ene a

0 1
  C       31.288    -893.420    -221.925
  O       31.746    -893.050    -223.209
  H       30.829    -892.550    -221.448
  H       32.135    -893.750    -221.311
  H       30.545    -894.220    -221.998
  P       32.379    -894.200    -224.117
  C       30.420    -894.280    -225.821
  O       31.141    -894.970    -224.807
  C       30.373    -895.110    -227.104
  O       29.521    -896.280    -226.886
  C       29.812    -894.350    -228.322
  O       30.513    -894.810    -229.489
  C       28.382    -894.860    -228.413
  O       27.820    -894.680    -229.709
  C       28.575    -896.310    -227.986
  N       24.872    -899.310    -229.618
  C       26.031    -898.900    -230.236
  N       26.241    -899.350    -231.498
  N       26.911    -898.100    -229.678
  C       26.589    -897.740    -228.409
  C       25.471    -898.080    -227.684
  C       24.495    -898.940    -228.323
  O       23.432    -899.320    -227.820
  N       25.498    -897.490    -226.437
  C       26.634    -896.820    -226.410
  N       27.328    -896.940    -227.588
  O       32.917    -895.250    -223.026
  O       33.456    -893.760    -225.054
  H       26.910    -895.030    -229.689
  H       33.858    -895.080    -222.830
  H       24.220    -899.900    -230.091
  H       26.994    -896.230    -225.582
  H       29.009    -896.920    -228.784
  H       27.746    -894.320    -227.681
  H       25.637    -900.000    -231.974
  H       29.894    -893.260    -228.254
  H       27.113    -899.100    -231.956
  H       31.383    -895.490    -227.313
  H       30.916    -893.330    -226.025
  H       29.407    -894.090    -225.467
  P       31.328    -893.730    -230.354
  C       33.337    -893.430    -228.727
  O       32.194    -892.840    -229.345
  O       30.181    -892.710    -230.833
  O       32.065    -894.310    -231.519
  H       30.433    -892.300    -231.666
  H       33.806    -892.713    -228.086
  H       34.030    -893.741    -229.481
  H       33.033    -894.279    -228.151

 6  7  8  9  10  11  12  13  14  15  26  29  33  34 0
 6-311+G(2d,p)
 ****
 36  38  39  40  41 0
 6-311+G(2d,p)
 ****
 1  2  3  4  5  16  17  18  19  20  21  22  23  24  25 0
 3-21G
 ****
 27  28  30  31  32  35  37  42  43  44  45  46  47 0
 3-21G
 ****
 48  49 0
 3-21G
 ****


