%nproc=1
%NoSave
%Mem=1900MB
#P OB98/GEN NMR

erre ene a

0 1
  C     -244.091     350.314    -578.133
  O     -245.419     350.709    -577.854
  H     -243.496     351.178    -578.434
  H     -243.654     349.884    -577.227
  H     -244.079     349.560    -578.923
  P     -246.232     351.406    -579.048
  C     -248.313     349.870    -578.833
  O     -247.228     350.292    -579.650
  C     -249.432     349.308    -579.706
  O     -249.913     350.369    -580.572
  C     -249.020     348.120    -580.594
  O     -249.842     346.983    -580.312
  C     -249.314     348.585    -582.012
  O     -249.881     347.567    -582.832
  C     -250.278     349.749    -581.811
  N     -250.954     350.310    -586.832
  C     -251.457     349.412    -585.957
  N     -251.326     349.379    -584.616
  C     -250.601     350.430    -584.184
  C     -250.046     351.437    -584.952
  C     -250.228     351.344    -586.341
  N     -249.671     352.230    -587.236
  N     -249.364     352.340    -584.154
  C     -249.474     351.858    -582.932
  N     -250.198     350.694    -582.902
  O     -245.125     351.576    -580.195
  O     -246.875     352.705    -578.703
  H     -250.324     348.018    -583.574
  H     -245.162     352.482    -580.551
  H     -252.042     348.606    -586.393
  H     -249.016     352.280    -582.045
  H     -251.319     349.410    -581.725
  H     -248.378     348.920    -582.478
  H     -247.960     347.853    -580.482
  H     -250.266     349.023    -579.056
  H     -248.698     350.725    -578.264
  H     -249.755     352.020    -588.217
  H     -249.037     352.933    -586.887
  H     -247.952     349.115    -578.129
  P     -249.107     345.549    -580.297
  C     -249.364     345.271    -577.722
  O     -248.478     345.348    -578.833
  O     -247.824     345.795    -581.219
  O     -249.957     344.432    -580.803
  H     -247.538     344.954    -581.627
  H     -248.799     345.138    -576.823
  H     -250.028     344.442    -577.852
  H     -249.932     346.175    -577.655

 6  7  8  9  10  11  12  13  14  15  25  28  32  33  34  35 0
 6-311+G(2d,p)
 ****
 36  39  40 0
 6-311+G(2d,p)
 ****
 1  2  3  4  5  16  17  18  19  20  21  22  23  24 0
 3-21G
 ****
 26  27  29  30  31  37  38  41  42  43  44  45  46  47  48 0
 3-21G
 ****


