%nproc=1
%NoSave
%Mem=1900MB
#P OB98/GEN NMR

erre ene a

0 1
  C     -244.227    -405.976    -385.932
  O     -242.975    -406.395    -386.447
  H     -244.331    -404.898    -386.096
  H     -244.277    -406.175    -384.854
  H     -245.040    -406.495    -386.449
  P     -242.608    -407.947    -386.245
  C     -240.300    -407.572    -385.117
  O     -241.644    -408.016    -384.962
  C     -239.327    -408.607    -384.545
  O     -237.958    -408.167    -384.721
  C     -239.513    -408.893    -383.061
  O     -240.542    -409.850    -382.852
  C     -238.136    -409.420    -382.684
  O     -237.989    -410.804    -383.070
  C     -237.210    -408.523    -383.521
  N     -233.131    -406.116    -381.744
  C     -233.261    -407.375    -382.311
  N     -232.125    -408.112    -382.391
  N     -234.382    -407.871    -382.747
  C     -235.441    -407.045    -382.557
  C     -235.452    -405.781    -382.007
  C     -234.190    -405.223    -381.573
  O     -234.008    -404.081    -381.147
  N     -236.723    -405.255    -381.996
  C     -237.479    -406.206    -382.511
  N     -236.748    -407.321    -382.862
  O     -241.617    -408.253    -387.469
  O     -243.765    -408.886    -386.237
  H     -237.044    -411.040    -383.072
  H     -241.799    -409.157    -387.798
  H     -232.240    -405.772    -381.453
  H     -238.548    -406.151    -382.658
  H     -236.312    -409.065    -383.853
  H     -237.970    -409.380    -381.607
  H     -231.320    -407.914    -381.825
  H     -239.714    -407.965    -382.504
  H     -232.229    -409.060    -382.733
  H     -239.442    -409.524    -385.130
  H     -240.178    -406.625    -384.584
  H     -240.091    -407.421    -386.183
  P     -241.763    -409.447    -381.887
  C     -240.652    -410.368    -379.724
  O     -241.172    -409.240    -380.406
  O     -242.583    -410.818    -381.774
  O     -242.621    -408.339    -382.401
  H     -243.397    -410.761    -382.310
  H     -240.300    -410.070    -378.759
  H     -239.842    -410.783    -380.287
  H     -241.422    -411.103    -379.612

 6  7  8  9  10  11  12  13  14  15  26  29  33  34 0
 6-311+G(2d,p)
 ****
 36  38  39  40  41 0
 6-311+G(2d,p)
 ****
 1  2  3  4  5  16  17  18  19  20  21  22  23  24  25 0
 3-21G
 ****
 27  28  30  31  32  35  37  42  43  44  45  46  47 0
 3-21G
 ****
 48  49 0
 3-21G
 ****


