%nproc=1
%NoSave
%Mem=1900MB
#P OB98/GEN NMR

erre ene a

0 1
  C     -145.502     373.051    -125.457
  O     -145.889     374.412    -125.378
  P     -146.846     374.845    -124.163
  C     -148.675     375.467    -125.909
  O     -148.349     374.760    -124.720
  C     -149.733     374.710    -126.705
  O     -149.318     373.346    -126.937
  C     -151.083     374.602    -126.008
  O     -151.865     375.776    -126.156
  C     -151.712     373.443    -126.762
  O     -152.246     373.904    -128.018
  C     -150.506     372.522    -127.005
  N     -153.028     368.753    -124.752
  C     -153.375     369.518    -125.853
  N     -154.592     369.282    -126.388
  N     -152.600     370.428    -126.377
  C     -151.412     370.560    -125.734
  C     -150.955     369.858    -124.640
  C     -151.833     368.860    -124.056
  O     -151.601     368.187    -123.055
  N     -149.700     370.266    -124.270
  C     -149.393     371.209    -125.141
  N     -150.414     371.456    -126.020
  O     -146.592     376.423    -124.039
  O     -146.586     374.126    -122.880
  H     -151.486     374.203    -128.555
  H     -146.904     376.741    -123.169
  H     -153.666     368.070    -124.381
  H     -148.455     371.749    -125.163
  H     -150.532     372.065    -127.999
  H     -152.535     372.976    -126.217
  H     -155.263     368.643    -125.990
  H     -150.963     374.327    -124.950
  H     -154.900     369.873    -127.152
  H     -149.841     375.201    -127.684
  H     -147.774     375.586    -126.514
  H     -149.042     376.466    -125.646
  P     -152.334     376.512    -124.808
  C     -154.702     375.521    -125.194
  O     -153.615     375.696    -124.304
  O     -152.941     377.894    -125.342
  O     -151.245     376.715    -123.805
  H     -152.877     378.579    -124.653
  H     -155.361     374.738    -124.797
  H     -154.363     375.225    -126.185
  H     -155.278     376.457    -125.264
  H     -144.870     372.909    -126.309
  H     -146.373     372.437    -125.553
  H     -144.970     372.779    -124.569

 3  4  5  6  7  8  9  10  11  12  23  26  30  31 0
 6-311+G(2d,p)
 ****
 33  35  36  37  38 0
 6-311+G(2d,p)
 ****
 1  2  13  14  15  16  17  18  19  20  21  22  24  25 0
 3-21G
 ****
 27  28  29  32  34  39  40  41  42  43  44  45  46  47  48  49 0
 3-21G
 ****


