%nproc=1
%NoSave
%Mem=1900MB
#P OB98/GEN NMR

erre ene a

0 1
  C     -479.513      90.479    -260.063
  O     -478.117      90.425    -260.340
  P     -477.244      91.752    -260.039
  C     -477.147      94.140    -261.044
  O     -477.669      92.821    -261.141
  C     -476.632      94.605    -262.403
  O     -477.658      94.509    -263.411
  C     -476.176      96.075    -262.430
  O     -474.864      96.238    -261.910
  C     -476.201      96.346    -263.934
  O     -474.998      95.829    -264.544
  C     -477.433      95.560    -264.380
  N     -480.651      97.727    -267.648
  C     -479.655      96.775    -267.871
  N     -479.470      96.405    -269.151
  N     -478.929      96.234    -266.928
  C     -479.228      96.731    -265.688
  C     -480.202      97.641    -265.337
  C     -480.986      98.236    -266.400
  O     -481.828      99.106    -266.263
  N     -480.198      97.873    -263.981
  C     -479.262      97.071    -263.504
  N     -478.622      96.386    -264.507
  O     -475.766      91.319    -260.495
  O     -477.288      92.218    -258.621
  H     -474.252      96.276    -264.098
  H     -475.117      91.939    -260.110
  H     -481.171      98.097    -268.409
  H     -479.004      96.977    -262.466
  H     -477.269      95.057    -265.351
  H     -476.236      97.417    -264.157
  H     -479.945      96.816    -269.938
  H     -476.903      96.713    -261.924
  H     -478.705      95.755    -269.367
  H     -475.800      93.951    -262.700
  H     -476.334      94.146    -260.324
  H     -477.937      94.820    -260.691
  P     -474.454      97.724    -261.482
  C     -473.449      99.752    -262.756
  O     -473.896      98.420    -262.811
  O     -473.148      97.491    -260.572
  O     -475.520      98.473    -260.739
  H     -473.033      98.210    -259.945
  H     -472.869      99.978    -263.648
  H     -472.809      99.909    -261.882
  H     -474.298     100.443    -262.694
  H     -479.962      89.539    -260.308
  H     -479.963      91.253    -260.649
  H     -479.663      90.686    -259.024

 3  4  5  6  7  8  9  10  11  12  23  26  30  31 0
 6-311+G(2d,p)
 ****
 33  35  36  37  38 0
 6-311+G(2d,p)
 ****
 1  2  13  14  15  16  17  18  19  20  21  22  24  25 0
 3-21G
 ****
 27  28  29  32  34  39  40  41  42  43  44  45  46  47  48  49 0
 3-21G
 ****


