%nproc=1
%NoSave
%Mem=1900MB
#P OB98/GEN NMR

erre ene a

0 1
  C       91.014      21.681     -57.899
  O       89.812      22.212     -57.383
  H       91.350      22.316     -58.723
  H       90.848      20.672     -58.283
  H       91.792      21.663     -57.132
  P       89.170      21.545     -56.075
  C       90.931      22.572     -54.499
  O       90.357      21.376     -55.010
  C       91.222      22.413     -53.010
  O       91.935      23.566     -52.512
  C       89.972      22.292     -52.146
  O       89.399      21.006     -52.264
  C       90.546      22.625     -50.778
  O       91.227      21.493     -50.215
  C       91.555      23.744     -51.129
  N       91.018      25.086     -50.897
  C       91.349      25.677     -49.683
  O       92.046      25.128     -48.833
  N       90.808      26.915     -49.456
  C       89.918      27.557     -50.268
  O       89.293      28.556     -49.928
  C       89.666      26.919     -51.568
  C       90.206      25.724     -51.813
  O       88.350      20.321     -56.308
  O       88.291      22.728     -55.443
  H       87.353      22.588     -55.671
  H       91.780      21.836     -49.487
  H       91.003      27.333     -48.558
  H       89.015      27.428     -52.268
  H       90.009      25.221     -52.753
  H       92.470      23.636     -50.532
  H       89.776      22.922     -50.064
  H       89.248      23.067     -52.423
  H       91.869      21.535     -52.880
  H       90.217      23.390     -54.645
  H       91.847      22.795     -55.053
  P       88.292      20.494     -51.229
  C       86.445      21.955     -52.238
  O       87.191      21.647     -51.069
  O       88.827      19.965     -49.940
  O       87.503      19.352     -52.030
  H       87.492      18.536     -51.493
  H       85.744      22.733     -52.019
  H       85.919      21.083     -52.566
  H       87.110      22.282     -53.010

 6  7  8  9  10  11  12  13  14  15  16  27  31  32  33  34  35 0
 6-311+G(2d,p)
 ****
 36  37 0
 6-311+G(2d,p)
 ****
 1  2  3  4  5  17  18  19  20  21  22  23  24  25 0
 3-21G
 ****
 26  28  29  30  38  39  40  41  42  43  44  45 0
 3-21G
 ****


