%nproc=1
%NoSave
%Mem=1900MB
#P OB98/GEN NMR

erre ene a

0 1
  C     -134.232    -131.873    -325.960
  O     -132.981    -131.908    -326.619
  H     -134.419    -132.852    -325.515
  H     -135.034    -131.655    -326.672
  H     -134.221    -131.121    -325.164
  P     -132.492    -130.609    -327.419
  C     -131.748    -128.668    -325.883
  O     -131.379    -129.894    -326.507
  C     -130.911    -128.445    -324.616
  O     -131.436    -129.313    -323.580
  C     -129.425    -128.783    -324.829
  O     -128.550    -127.722    -324.437
  C     -129.274    -130.129    -324.129
  O     -127.966    -130.405    -323.670
  C     -130.343    -130.077    -323.031
  N     -130.801    -131.392    -322.588
  C     -130.000    -132.086    -321.685
  O     -128.938    -131.667    -321.224
  N     -130.464    -133.321    -321.306
  C     -131.615    -133.916    -321.737
  O     -131.978    -135.022    -321.357
  C     -132.406    -133.151    -322.712
  C     -131.973    -131.944    -323.089
  O     -133.576    -129.704    -327.904
  O     -131.636    -131.200    -328.635
  H     -127.945    -131.351    -323.408
  H     -132.149    -131.128    -329.464
  H     -129.899    -133.824    -320.638
  H     -133.318    -133.599    -323.082
  H     -132.534    -131.347    -323.805
  H     -129.961    -129.546    -322.152
  H     -129.535    -130.922    -324.843
  H     -129.205    -128.910    -325.894
  H     -131.044    -127.408    -324.284
  H     -132.814    -128.728    -325.630
  H     -131.597    -127.837    -326.580
  P     -128.040    -126.554    -325.398
  C     -130.166    -125.095    -324.875
  O     -128.750    -125.188    -324.963
  O     -128.022    -126.867    -326.859
  O     -126.510    -126.324    -324.934
  H     -126.016    -126.050    -325.738
  H     -130.440    -124.107    -324.570
  H     -130.526    -125.802    -324.157
  H     -130.597    -125.306    -325.831

 6  7  8  9  10  11  12  13  14  15  16  26  31  32  33  34  35 0
 6-311+G(2d,p)
 ****
 36  37 0
 6-311+G(2d,p)
 ****
 1  2  3  4  5  17  18  19  20  21  22  23  24  25 0
 3-21G
 ****
 27  28  29  30  38  39  40  41  42  43  44  45 0
 3-21G
 ****


