%nproc=1
%NoSave
%Mem=1900MB
#P OB98/GEN NMR

erre ene a

0 1
  C       99.559      11.422    -288.258
  O      100.472      11.035    -287.246
  P      100.466       9.499    -286.776
  C      102.789       8.771    -287.705
  O      102.001       9.076    -286.566
  C      104.122       8.150    -287.283
  O      104.926       9.176    -286.645
  C      104.006       6.985    -286.293
  O      105.088       6.090    -286.574
  C      104.230       7.651    -284.949
  O      104.641       6.733    -283.942
  C      105.272       8.700    -285.324
  N      107.171      13.278    -284.322
  C      107.479      12.396    -285.342
  N      108.375      12.828    -286.254
  N      106.952      11.205    -285.459
  C      106.060      10.923    -284.482
  C      105.704      11.692    -283.399
  C      106.261      13.020    -283.305
  O      105.955      13.864    -282.464
  N      104.835      11.027    -282.573
  C      104.604       9.889    -283.198
  N      105.287       9.801    -284.381
  O      100.036       8.722    -288.102
  O       99.583       9.182    -285.610
  H      104.746       7.232    -283.106
  H       99.071       8.568    -288.125
  H      107.596      14.190    -284.293
  H      103.955       9.103    -282.850
  H      106.289       8.284    -285.365
  H      103.300       8.126    -284.613
  H      108.796      13.745    -286.244
  H      103.049       6.457    -286.352
  H      108.594      12.215    -287.031
  H      104.658       7.833    -288.187
  H      102.994       9.696    -288.252
  H      102.236       8.093    -288.364
  P      104.737       4.549    -286.848
  C      106.466       4.423    -288.773
  O      106.007       3.880    -287.550
  O      103.664       4.638    -288.040
  O      104.170       3.816    -285.676
  H      103.029       3.902    -287.960
  H      107.514       4.149    -288.909
  H      106.381       5.513    -288.786
  H      105.880       4.005    -289.596
  H       99.677      12.465    -288.465
  H       98.559      11.236    -287.926
  H       99.751      10.858    -289.147

 3  4  5  6  7  8  9  10  11  12  23  26  30  31 0
 6-311+G(2d,p)
 ****
 33  35  36  37  38 0
 6-311+G(2d,p)
 ****
 1  2  13  14  15  16  17  18  19  20  21  22  24  25 0
 3-21G
 ****
 27  28  29  32  34  39  40  41  42  43  44  45  46  47  48  49 0
 3-21G
 ****


