%nproc=1
%NoSave
%Mem=1900MB
#P OB98/GEN NMR

erre ene a

0 1
  C       32.156     241.666    -386.552
  O       32.681     242.957    -386.307
  P       31.738     244.020    -385.561
  C       31.461     245.495    -387.691
  O       30.822     244.693    -386.704
  C       30.446     245.938    -388.745
  O       29.612     244.826    -389.143
  C       29.478     247.012    -388.266
  O       30.054     248.310    -388.325
  C       28.361     246.877    -389.287
  O       28.726     247.554    -390.508
  C       28.313     245.361    -389.512
  N       23.325     245.024    -388.725
  C       24.018     245.646    -389.748
  N       23.277     246.323    -390.655
  N       25.318     245.608    -389.867
  C       25.925     244.901    -388.885
  C       25.345     244.237    -387.826
  C       23.909     244.300    -387.691
  O       23.241     243.812    -386.784
  N       26.291     243.620    -387.042
  C       27.441     243.912    -387.625
  N       27.278     244.715    -388.721
  O       32.742     245.197    -385.161
  O       30.992     243.478    -384.379
  H       27.979     247.442    -391.127
  H       32.340     245.762    -384.472
  H       22.321     245.090    -388.671
  H       28.410     243.574    -387.282
  H       28.143     245.109    -390.563
  H       27.421     247.319    -388.951
  H       22.274     246.443    -390.576
  H       29.091     246.784    -387.267
  H       23.760     246.843    -391.374
  H       30.999     246.275    -389.628
  H       32.257     244.913    -388.173
  H       31.914     246.369    -387.214
  P       29.688     249.312    -387.119
  C       28.275     250.920    -388.590
  O       28.294     249.986    -387.534
  O       30.756     250.493    -387.298
  O       29.751     248.691    -385.761
  H       30.924     250.928    -386.441
  H       27.239     251.075    -388.904
  H       28.860     250.566    -389.446
  H       28.676     251.879    -388.237
  H       32.891     241.071    -387.052
  H       31.284     241.746    -387.167
  H       31.895     241.205    -385.622

 3  4  5  6  7  8  9  10  11  12  23  26  30  31 0
 6-311+G(2d,p)
 ****
 33  35  36  37  38 0
 6-311+G(2d,p)
 ****
 1  2  13  14  15  16  17  18  19  20  21  22  24  25 0
 3-21G
 ****
 27  28  29  32  34  39  40  41  42  43  44  45  46  47  48  49 0
 3-21G
 ****


