%nproc=1
%NoSave
%Mem=1900MB
#P OB98/GEN NMR

erre ene a

0 1
  C      -31.799      -4.527     -59.734
  O      -31.896      -4.931     -61.083
  P      -32.652      -6.258     -61.549
  C      -31.094      -7.929     -62.786
  O      -31.595      -7.470     -61.535
  C      -29.893      -7.112     -63.286
  O      -28.934      -6.966     -62.219
  C      -29.176      -7.863     -64.412
  O      -29.649      -7.773     -65.742
  C      -27.700      -7.532     -64.231
  O      -27.262      -6.487     -65.099
  C      -27.612      -7.089     -62.769
  N      -23.187      -7.881     -60.428
  C      -23.697      -6.708     -60.950
  N      -22.836      -5.670     -61.021
  N      -24.925      -6.582     -61.381
  C      -25.635      -7.734     -61.333
  C      -25.243      -8.950     -60.825
  C      -23.898      -9.065     -60.314
  O      -23.381     -10.108     -59.920
  N      -26.201      -9.913     -61.011
  C      -27.159      -9.292     -61.667
  N      -26.844      -7.978     -61.920
  O      -33.580      -6.131     -62.714
  O      -33.553      -6.582     -60.249
  H      -26.336      -6.280     -64.875
  H      -34.389      -6.976     -60.563
  H      -22.207      -7.941     -60.183
  H      -28.078      -9.751     -62.009
  H      -27.150      -6.098     -62.693
  H      -27.077      -8.405     -64.461
  H      -21.849      -5.774     -60.835
  H      -29.255      -8.933     -64.176
  H      -23.120      -4.854     -61.550
  H      -30.194      -6.097     -63.556
  H      -31.917      -7.886     -63.506
  H      -30.800      -8.978     -62.697
  P      -29.756      -8.971     -66.794
  C      -28.092      -9.144     -68.730
  O      -28.286      -9.302     -67.336
  O      -30.465      -8.314     -68.070
  O      -30.532     -10.157     -66.322
  H      -30.885      -9.011     -68.610
  H      -27.184      -9.673     -69.026
  H      -27.978      -8.082     -68.966
  H      -28.939      -9.550     -69.291
  H      -31.248      -3.611     -59.675
  H      -31.294      -5.284     -59.170
  H      -32.781      -4.380     -59.334

 3  4  5  6  7  8  9  10  11  12  23  26  30  31 0
 6-311+G(2d,p)
 ****
 33  35  36  37  38 0
 6-311+G(2d,p)
 ****
 1  2  13  14  15  16  17  18  19  20  21  22  24  25 0
 3-21G
 ****
 27  28  29  32  34  39  40  41  42  43  44  45  46  47  48  49 0
 3-21G
 ****


