%nproc=1
%NoSave
%Mem=1900MB
#P OB98/GEN NMR

erre ene a

0 1
  C      160.736    -479.049      46.737
  O      160.721    -477.695      46.310
  P      161.773    -476.690      46.989
  C      164.335    -476.360      46.823
  O      163.237    -477.245      46.628
  C      165.413    -477.012      47.681
  O      164.910    -477.146      49.041
  C      165.836    -478.413      47.209
  O      167.265    -478.524      47.287
  C      165.248    -479.337      48.259
  O      165.970    -480.562      48.358
  C      165.339    -478.444      49.496
  N      164.794    -482.046      52.993
  C      165.859    -481.777      52.167
  N      166.914    -482.620      52.251
  N      165.899    -480.769      51.336
  C      164.794    -479.990      51.384
  C      163.674    -480.150      52.163
  C      163.620    -481.302      53.038
  O      162.660    -481.646      53.729
  N      162.765    -479.141      51.945
  C      163.332    -478.378      51.034
  N      164.540    -478.875      50.624
  O      161.615    -477.013      48.550
  O      161.540    -475.241      46.712
  H      166.852    -480.348      48.720
  H      161.394    -476.193      49.034
  H      164.806    -482.844      53.605
  H      162.891    -477.481      50.614
  H      166.379    -478.361      49.835
  H      164.207    -479.562      47.999
  H      166.968    -483.392      52.892
  H      165.501    -478.668      46.199
  H      167.722    -482.426      51.667
  H      166.276    -476.339      47.726
  H      163.980    -475.451      47.316
  H      164.747    -476.089      45.845
  P      167.963    -479.448      46.172
  C      167.944    -479.377      43.564
  O      167.301    -479.018      44.775
  O      167.346    -480.895      46.453
  O      169.454    -479.440      46.222
  H      167.950    -481.594      46.125
  H      168.769    -480.077      43.730
  H      168.330    -478.477      43.085
  H      167.203    -479.847      42.903
  H      159.989    -479.599      46.205
  H      160.532    -479.094      47.786
  H      161.698    -479.474      46.542

 3  4  5  6  7  8  9  10  11  12  23  26  30  31  33  0
 6-311+G(2d,p)
 ****
 35  36  37  38 0
 6-311+G(2d,p)
 ****
 1  2  13  14  15  16  17  18  19  20  21  22  24  25  27  28  29 0
 3-21G
 ****
 32  34  39  40  41  42  43  44  45  46  47  48  49 0
 3-21G
 ****


