%nproc=1
%NoSave
%Mem=1900MB
#P OB98/GEN NMR

erre ene a

0 1
  C      -18.513    -131.008     227.301
  O      -19.496    -130.811     226.308
  H      -18.871    -131.774     227.999
  H      -18.336    -130.092     227.856
  H      -17.577    -131.360     226.845
  P      -19.315    -129.607     225.260
  C      -19.660    -130.843     223.042
  O      -18.713    -130.299     223.940
  C      -19.017    -131.429     221.800
  O      -18.249    -130.402     221.116
  C      -18.056    -132.601     222.099
  O      -18.313    -133.671     221.184
  C      -16.668    -132.014     221.834
  O      -15.712    -133.014     221.517
  C      -17.002    -131.000     220.720
  N      -15.960    -129.985     220.555
  C      -14.930    -130.296     219.638
  O      -14.926    -131.388     219.042
  N      -13.928    -129.387     219.446
  C      -13.904    -128.298     220.146
  N      -12.866    -127.440     219.914
  C      -14.926    -127.955     221.150
  C      -15.916    -128.837     221.292
  O      -18.532    -128.440     225.777
  O      -20.809    -129.226     224.815
  H      -16.023    -133.493     220.719
  H      -20.822    -128.319     224.439
  H      -14.846    -127.038     221.713
  H      -16.713    -128.670     222.013
  H      -17.136    -131.510     219.759
  H      -16.332    -131.475     222.737
  H      -18.141    -132.976     223.120
  H      -19.801    -131.736     221.094
  H      -12.187    -127.709     219.207
  H      -20.374    -130.049     222.761
  H      -12.759    -126.565     220.389
  H      -20.215    -131.649     223.567
  P      -19.295    -134.824     221.715
  C      -21.563    -134.037     220.732
  O      -20.765    -134.193     221.901
  O      -18.793    -135.057     223.225
  O      -19.237    -136.087     220.913
  H      -18.230    -135.857     223.265
  H      -22.507    -133.610     220.999
  H      -21.720    -134.993     220.277
  H      -21.062    -133.391     220.042

 6  7  8  9  10  11  12  13  14  15  16  26  30  31  32  33  35 0
 6-311+G(2d,p)
 ****
 37  38 0
 6-311+G(2d,p)
 ****
 1  2  3  4  5  17  18  19  20  21  22  23  24  25 0
 3-21G
 ****
 27  28  29  34  36  39  40  41  42  43  44  45  46 0
 3-21G
 ****


