%nproc=1
%NoSave
%Mem=1900MB
#P OB98/GEN NMR

erre ene a

0 1
  C      337.150    -695.462     364.350
  O      338.092    -694.406     364.400
  P      338.900    -694.119     365.755
  C      341.084    -694.440     364.431
  O      340.352    -694.791     365.606
  C      342.068    -693.310     364.750
  O      342.996    -693.731     365.778
  C      342.936    -692.900     363.574
  O      342.203    -692.098     362.669
  C      344.082    -692.177     364.277
  O      343.708    -690.827     364.602
  C      344.233    -693.018     365.564
  N      348.975    -693.957     367.167
  C      348.201    -692.859     367.276
  N      346.952    -692.671     366.789
  C      346.542    -693.755     366.104
  C      347.246    -694.936     365.888
  C      348.518    -695.031     366.476
  N      349.310    -696.153     366.428
  N      346.510    -695.804     365.108
  C      345.383    -695.161     364.875
  N      345.336    -693.955     365.499
  O      338.173    -694.460     367.014
  O      339.220    -692.553     365.688
  H      344.372    -690.493     365.248
  H      338.802    -692.101     366.446
  H      348.617    -692.031     367.834
  H      344.565    -695.544     364.247
  H      344.391    -692.382     366.443
  H      344.982    -692.124     363.675
  H      343.332    -693.786     363.068
  H      341.505    -692.459     365.139
  H      340.373    -694.102     363.678
  H      350.134    -696.160     367.008
  H      348.865    -697.043     366.181
  H      341.620    -695.315     364.054
  P      342.579    -692.092     361.113
  C      340.249    -692.456     360.110
  O      341.514    -693.039     360.364
  O      344.011    -692.372     360.795
  O      342.159    -690.628     360.632
  H      342.769    -690.339     359.909
  H      339.661    -692.451     361.029
  H      339.737    -693.053     359.359
  H      340.351    -691.436     359.744
  H      336.712    -695.504     363.375
  H      336.384    -695.292     365.078
  H      337.642    -696.389     364.560

 3  4  5  6  7  8  9  10  11  12  22  25  29  30  31  32 0
 6-311+G(2d,p)
 ****
 33  36  37 0
 6-311+G(2d,p)
 ****
 1  2  13  14  15  16  17  18  19  20  21  23  24  26 0
 3-21G
 ****
 27  28  34  35  38  39  40  41  42  43  44  45  46  47  48 0
 3-21G
 ****


