%nproc=1
%NoSave
%Mem=1900MB
#P OB98/GEN NMR

erre ene a

0 1
  C      340.135    -182.542     129.246
  O      341.449    -182.942     129.583
  H      339.958    -181.542     129.647
  H      339.407    -183.232     129.683
  H      340.014    -182.513     128.159
  P      341.918    -184.386     129.063
  C      341.644    -185.599     131.349
  O      341.193    -185.463     130.005
  C      340.866    -186.713     132.043
  O      339.469    -186.346     132.140
  C      340.885    -188.037     131.292
  O      342.095    -188.748     131.477
  C      339.673    -188.733     131.892
  O      339.998    -189.367     133.138
  C      338.701    -187.570     132.124
  N      333.689    -187.978     131.240
  C      334.409    -188.008     132.382
  N      335.744    -187.879     132.534
  C      336.338    -187.674     131.347
  C      335.736    -187.614     130.102
  C      334.340    -187.774     130.070
  N      333.610    -187.767     128.909
  N      336.682    -187.428     129.114
  C      337.834    -187.366     129.749
  N      337.676    -187.506     131.100
  O      343.452    -184.452     129.516
  O      341.760    -184.612     127.596
  H      339.161    -189.742     133.479
  H      344.024    -184.247     128.753
  H      333.839    -188.170     133.295
  H      338.799    -187.230     129.282
  H      338.188    -187.646     133.093
  H      339.291    -189.502     131.222
  H      340.699    -187.869     130.224
  H      341.257    -186.834     133.059
  H      341.479    -184.656     131.882
  H      342.715    -185.822     131.341
  H      332.621    -187.956     128.952
  H      334.099    -187.732     128.020
  P      342.743    -189.464     130.199
  C      341.446    -191.696     130.571
  O      341.715    -190.595     129.713
  O      343.967    -190.297     130.808
  O      343.189    -188.530     129.123
  H      344.711    -190.305     130.174
  H      340.745    -192.353     130.099
  H      341.036    -191.338     131.492
  H      342.355    -192.226     130.767

 6  7  8  9  10  11  12  13  14  15  25  28  32  33  34  35 0
 6-311+G(2d,p)
 ****
 36  37  40 0
 6-311+G(2d,p)
 ****
 1  2  3  4  5  16  17  18  19  20  21  22  23  24 0
 3-21G
 ****
 26  27  29  30  31  38  39 41  42  43  44  45  46  47  48 0
 3-21G
 ****


