%nproc=1
%NoSave
%Mem=1900MB
#P OB98/GEN NMR

erre ene a

0 1
  C      230.004    1214.592     156.659
  O      228.991    1214.804     157.626
  H      230.964    1214.896     157.100
  H      229.821    1215.210     155.777
  H      230.064    1213.535     156.385
  P      227.504    1214.293     157.300
  C      227.482    1213.357     159.705
  O      226.769    1214.071     158.700
  C      227.772    1214.287     160.894
  O      228.703    1215.323     160.502
  C      226.540    1215.008     161.419
  O      225.731    1214.149     162.204
  C      227.190    1216.151     162.197
  O      227.637    1215.710     163.490
  C      228.391    1216.502     161.294
  N      228.161    1217.663     160.445
  C      228.365    1218.912     161.020
  O      228.700    1219.053     162.194
  N      228.142    1219.995     160.208
  C      227.638    1219.948     158.931
  O      227.356    1220.956     158.279
  C      227.406    1218.599     158.395
  C      227.690    1217.545     159.154
  O      227.410    1213.146     156.341
  O      226.784    1215.601     156.710
  H      228.112    1216.456     163.889
  H      226.703    1215.515     155.738
  H      228.273    1220.898     160.618
  H      227.023    1218.537     157.369
  H      227.520    1216.538     158.765
  H      229.288    1216.699     161.908
  H      226.504    1216.988     162.354
  H      225.961    1215.437     160.588
  H      228.245    1213.688     161.694
  H      228.427    1213.012     159.278
  H      226.887    1212.500     160.026
  P      224.139    1214.181     162.037
  C      223.799    1212.187     160.442
  O      223.646    1212.680     161.778
  O      223.615    1215.200     161.060
  O      223.614    1214.480     163.512
  H      223.103    1215.314     163.514
  H      223.438    1211.181     160.390
  H      224.834    1212.209     160.170
  H      223.240    1212.802     159.769

 6  7  8  9  10  11  12  13  14  15  16  26  31  32  33  34  35 0
 6-311+G(2d,p)
 ****
 36  37 0
 6-311+G(2d,p)
 ****
 1  2  3  4  5  17  18  19  20  21  22  23  24  25 0
 3-21G
 ****
 27  28  29  30  38  39  40  41  42  43  44  45 0
 3-21G
 ****


