%nproc=1
%NoSave
%Mem=1900MB
#P OB98/GEN NMR

erre ene a

0 1
  C      -88.219     153.533    -553.565
  O      -87.578     152.571    -554.380
  H      -88.850     154.183    -554.174
  H      -88.853     153.011    -552.841
  H      -87.479     154.127    -553.019
  P      -86.588     153.136    -555.515
  C      -87.240     151.020    -556.880
  O      -86.192     151.868    -556.423
  C      -86.655     149.676    -557.306
  O      -85.696     149.865    -558.366
  C      -85.913     148.930    -556.191
  O      -86.797     148.238    -555.325
  C      -85.080     147.974    -557.025
  O      -85.895     146.876    -557.485
  C      -84.651     148.856    -558.205
  N      -79.579     148.208    -557.955
  C      -80.592     147.335    -558.143
  N      -81.922     147.582    -558.189
  C      -82.154     148.889    -558.029
  C      -81.231     149.908    -557.807
  C      -79.880     149.517    -557.784
  N      -78.844     150.402    -557.569
  N      -81.863     151.120    -557.641
  C      -83.150     150.859    -557.781
  N      -83.377     149.524    -558.009
  O      -85.233     153.444    -554.711
  O      -87.087     154.323    -556.272
  H      -85.297     146.224    -557.888
  H      -84.682     154.078    -555.216
  H      -80.299     146.293    -558.275
  H      -83.946     151.590    -557.737
  H      -84.598     148.292    -559.145
  H      -84.252     147.537    -556.459
  H      -85.252     149.606    -555.642
  H      -87.488     149.063    -557.706
  H      -87.737     151.489    -557.738
  H      -77.935     150.001    -557.400
  H      -79.068     151.352    -557.295
  H      -87.979     150.885    -556.079
  P      -86.810     148.675    -553.784
  C      -87.474     146.173    -553.492
  O      -87.613     147.514    -553.016
  O      -87.836     149.905    -553.763
  O      -85.473     149.036    -553.224
  H      -87.650     150.512    -553.023
  H      -88.063     145.517    -552.886
  H      -86.446     145.881    -553.440
  H      -87.809     146.118    -554.507

 6  7  8  9  10  11  12  13  14  15  25  28  32  33  34  35 0
 6-311+G(2d,p)
 ****
 36  39  40 0
 6-311+G(2d,p)
 ****
 1  2  3  4  5  16  17  18  19  20  21  22  23  24 0
 3-21G
 ****
 26  27  29  30  31  37  38  41  42  43  44  45  46  47 0
 3-21G
 ****
 48 0
 3-21G
 ****


