%nproc=1
%NoSave
%Mem=1900MB
#P OB98/GEN NMR

erre ene a

0 1
  C     -129.443    1010.676     -55.484
  O     -128.097    1011.042     -55.781
  P     -127.194    1009.941     -56.529
  C     -127.294    1010.999     -58.901
  O     -127.633    1009.905     -58.072
  C     -125.848    1010.856     -59.386
  O     -125.643    1009.603     -60.072
  C     -125.443    1011.936     -60.379
  O     -125.214    1013.176     -59.733
  C     -124.197    1011.307     -60.995
  O     -123.071    1011.463     -60.132
  C     -124.585    1009.818     -61.057
  N     -123.271    1007.618     -65.487
  C     -122.565    1007.897     -64.373
  N     -122.989    1008.495     -63.242
  C     -124.293    1008.782     -63.321
  C     -125.152    1008.551     -64.392
  C     -124.580    1007.955     -65.521
  N     -125.305    1007.673     -66.663
  N     -126.417    1009.008     -64.099
  C     -126.333    1009.523     -62.886
  N     -125.070    1009.404     -62.360
  O     -127.718    1008.563     -55.933
  O     -125.727    1010.134     -56.298
  H     -122.328    1010.956     -60.500
  H     -127.046    1008.177     -55.337
  H     -121.503    1007.620     -64.393
  H     -127.145    1009.973     -62.357
  H     -123.760    1009.155     -60.797
  H     -123.932    1011.747     -61.966
  H     -126.217    1012.069     -61.152
  H     -125.183    1010.882     -58.510
  H     -127.417    1011.938     -58.364
  H     -124.804    1007.302     -67.472
  H     -126.264    1007.996     -66.728
  H     -127.985    1011.034     -59.751
  P     -126.443    1014.186     -59.600
  C     -126.940    1013.432     -57.189
  O     -127.415    1013.471     -58.521
  O     -127.221    1013.959     -60.975
  O     -126.078    1015.607     -59.299
  H     -127.307    1013.003     -61.182
  H     -127.704    1012.957     -56.561
  H     -126.747    1014.445     -56.808
  H     -126.014    1012.854     -57.134
  H     -129.933    1011.489     -54.990
  H     -129.447    1009.817     -54.846
  H     -129.959    1010.447     -56.393

 3  4  5  6  7  8  9  10  11  12  22  25  29  30  31  32 0
 6-311+G(2d,p)
 ****
 33  36  37 0
 6-311+G(2d,p)
 ****
 1  2  13  14  15  16  17  18  19  20  21  23  24  26 0
 3-21G
 ****
 27  28  34  35  38  39  40  41  42  43  44  45  46  47  48 0
 3-21G
 ****


