%nproc=1
%NoSave
%Mem=1900MB
#P OB98/GEN NMR

erre ene a

0 1
  C       11.271      10.406       3.552
  O       11.675      11.494       4.362
  H       12.139       9.772       3.355
  H       10.882      10.777       2.600
  H       10.507       9.812       4.061
  P       10.506      12.412       4.955
  C       11.743      13.002       7.191
  O       11.188      13.461       5.966
  C       12.698      14.048       7.758
  O       13.923      14.088       6.999
  C       12.180      15.474       7.680
  O       11.152      15.731       8.610
  C       13.458      16.254       7.958
  O       13.706      16.381       9.363
  C       14.536      15.366       7.290
  N       15.094      15.995       6.107
  C       16.463      16.284       6.171
  O       17.111      15.988       7.176
  N       17.047      16.933       5.115
  C       16.327      17.287       4.098
  N       16.962      17.957       3.099
  C       14.881      17.003       3.991
  C       14.334      16.361       5.022
  O        9.741      11.406       5.935
  O        9.630      13.050       3.931
  H       13.206      17.169       9.660
  H       10.330      10.921       6.536
  H       14.328      17.308       3.116
  H       13.279      16.112       5.027
  H       15.357      15.166       7.990
  H       13.409      17.266       7.551
  H       11.857      15.703       6.656
  H       12.938      13.766       8.792
  H       17.940      18.179       3.238
  H       12.264      12.051       7.045
  H       16.489      18.349       2.298
  H       10.915      12.824       7.885
  P       10.136      16.952       8.412
  C        7.927      15.802       7.751
  O        8.675      16.405       8.802
  O       10.203      17.630       7.086
  O       10.473      17.908       9.652
  H       10.354      17.501      10.527
  H        6.979      15.479       8.128
  H        8.465      14.960       7.368
  H        7.775      16.514       6.967

 6  7  8  9  10  11  12  13  14  15  16  26  30  31  32  33  35 0
 6-311+G(2d,p)
 ****
 37  38 0
 6-311+G(2d,p)
 ****
 1  2  3  4  5  17  18  19  20  21  22  23  24  25 0
 3-21G
 ****
 27  28  29  34  36  39  40  41  42  43  44  45  46 0
 3-21G
 ****


