%nproc=1
%NoSave
%Mem=1900MB
#P OB98/GEN NMR

erre ene a

0 1
  C      359.447     -28.623     232.811
  O      359.699     -29.884     233.397
  H      359.629     -28.696     231.734
  H      360.126     -27.877     233.234
  H      358.409     -28.322     232.974
  P      359.299     -30.053     234.945
  C      361.751     -29.497     235.586
  O      360.375     -29.214     235.790
  C      362.596     -28.810     236.660
  O      362.402     -27.379     236.612
  C      362.266     -29.237     238.088
  O      362.911     -30.453     238.441
  C      362.834     -28.064     238.871
  O      364.274     -28.186     238.948
  C      362.453     -26.877     237.981
  N      360.141     -23.003     240.297
  C      361.485     -23.288     240.182
  N      362.342     -22.426     240.768
  N      361.956     -24.329     239.541
  C      360.986     -25.112     239.011
  C      359.622     -24.936     239.062
  C      359.114     -23.773     239.762
  O      357.935     -23.461     239.877
  N      358.960     -25.932     238.393
  C      359.913     -26.724     237.960
  N      361.171     -26.279     238.313
  O      359.687     -31.577     235.266
  O      357.865     -29.781     235.267
  H      364.587     -27.431     239.482
  H      359.030     -31.940     235.891
  H      359.833     -22.194     240.809
  H      359.760     -27.628     237.388
  H      363.194     -26.073     238.012
  H      362.464     -28.022     239.893
  H      362.051     -21.632     241.318
  H      361.178     -29.291     238.251
  H      363.338     -22.598     240.669
  H      363.655     -29.004     236.433
  H      362.055     -29.133     234.600
  H      361.900     -30.583     235.629
  P      362.295     -31.301     239.662
  C      363.722     -29.942     241.353
  O      362.416     -30.355     240.950
  O      363.405     -32.430     239.919
  O      360.946     -31.890     239.399
  H      363.001     -33.196     240.363
  H      363.648     -29.320     242.220
  H      364.184     -29.393     240.559
  H      364.314     -30.804     241.582

 6  7  8  9  10  11  12  13  14  15  26  29  33  34 0
 6-311+G(2d,p)
 ****
 36  38  39  40  41 0
 6-311+G(2d,p)
 ****
 1  2  3  4  5  16  17  18  19  20  21  22  23  24  25 0
 3-21G
 ****
 27  28  30  31  32  35  37  42  43  44  45  46  47 0
 3-21G
 ****
 48  49 0
 3-21G
 ****


