%nproc=1
%NoSave
%Mem=1900MB
#P OB98/GEN NMR

erre ene a

0 1
  C      357.831     375.040    1149.801
  O      356.493     374.757    1149.401
  P      356.105     373.335    1148.772
  C      355.900     371.822    1150.839
  O      356.741     372.247    1149.764
  C      355.398     370.396    1150.559
  O      354.527     370.439    1149.392
  C      356.464     369.359    1150.224
  O      357.086     368.763    1151.339
  C      355.635     368.304    1149.491
  O      354.914     367.512    1150.466
  C      354.645     369.178    1148.684
  N      354.988     367.196    1143.986
  C      354.453     366.723    1145.134
  N      354.410     367.297    1146.356
  C      354.983     368.520    1146.304
  C      355.570     369.134    1145.219
  C      355.563     368.414    1144.009
  N      356.095     368.921    1142.841
  N      356.078     370.369    1145.569
  C      355.777     370.510    1146.846
  N      355.102     369.415    1147.329
  O      356.449     373.183    1147.327
  O      354.530     373.201    1149.038
  H      354.224     367.020    1149.980
  H      354.151     372.505    1148.481
  H      353.969     365.744    1145.065
  H      356.015     371.366    1147.459
  H      353.643     368.739    1148.645
  H      356.234     367.615    1148.895
  H      357.210     369.759    1149.525
  H      354.797     370.064    1151.409
  H      355.043     372.498    1150.894
  H      355.945     368.400    1141.998
  H      356.387     369.881    1142.822
  H      356.448     371.852    1151.775
  P      358.612     368.287    1151.184
  C      359.684     370.518    1152.055
  O      359.475     369.628    1150.981
  O      358.830     367.237    1150.149
  O      359.008     367.813    1152.653
  H      359.056     368.534    1153.336
  H      360.413     371.265    1151.753
  H      360.084     369.972    1152.929
  H      358.746     371.009    1152.323
  H      357.883     376.034    1150.193
  H      358.481     374.955    1148.956
  H      358.133     374.343    1150.555

 3  4  5  6  7  8  9  10  11  12  22  25  29  30  31  32 0
 6-311+G(2d,p)
 ****
 33  36  37 0
 6-311+G(2d,p)
 ****
 1  2  13  14  15  16  17  18  19  20  21  23  24  26 0
 3-21G
 ****
 27  28  34  35  38  39  40  41  42  43  44  45  46  47  48 0
 3-21G
 ****


