%nproc=1
%NoSave
%Mem=1900MB
#P OB98/GEN NMR

erre ene a

0 1
  C      417.004    -333.379    -218.998
  O      417.677    -332.726    -217.934
  H      415.964    -333.523    -218.711
  H      417.454    -334.353    -219.188
  H      417.044    -332.771    -219.908
  P      419.207    -332.310    -218.190
  C      418.254    -329.900    -218.450
  O      419.165    -330.876    -218.923
  C      418.181    -328.732    -219.441
  O      419.472    -328.068    -219.461
  C      417.869    -329.184    -220.875
  O      417.040    -328.216    -221.490
  C      419.239    -329.190    -221.544
  O      419.187    -329.069    -222.955
  C      419.910    -328.006    -220.843
  N      421.373    -328.076    -220.924
  C      422.063    -326.882    -221.104
  O      421.532    -325.772    -221.129
  N      423.415    -326.986    -221.261
  C      424.134    -328.150    -221.274
  O      425.343    -328.191    -221.427
  C      423.357    -329.380    -221.069
  C      422.031    -329.288    -220.920
  O      419.673    -333.311    -219.349
  O      420.099    -332.376    -216.994
  H      420.042    -334.120    -218.980
  H      418.473    -328.424    -223.170
  H      423.927    -326.132    -221.388
  H      423.887    -330.323    -221.097
  H      421.418    -330.179    -220.792
  H      419.557    -327.065    -221.259
  H      419.765    -330.125    -221.315
  H      417.394    -330.166    -220.925
  H      417.454    -328.016    -219.081
  H      418.602    -329.532    -217.471
  H      417.267    -330.360    -218.330
  P      415.627    -328.701    -222.105
  C      414.499    -327.854    -219.899
  O      414.662    -328.914    -220.835
  O      416.009    -330.184    -222.557
  O      415.109    -327.798    -223.169
  H      416.629    -330.642    -221.959
  H      413.829    -328.163    -219.124
  H      414.097    -326.997    -220.397
  H      415.448    -327.606    -219.472

 6  7  8  9  10  11  12  13  14  15  16  27  31  32  33  34  35 0
 6-311+G(2d,p)
 ****
 36  37 0
 6-311+G(2d,p)
 ****
 1  2  3  4  5  17  18  19  20  21  22  23  24  25 0
 3-21G
 ****
 26  28  29  30  38  39  40  41  42  43  44  45 0
 3-21G
 ****


