%nproc=1
%NoSave
%Mem=1900MB
#P OB98/GEN NMR

erre ene a

0 1
  C       81.687     204.257      70.937
  O       80.720     205.082      70.321
  H       81.343     203.220      70.900
  H       81.797     204.550      71.984
  H       82.650     204.330      70.427
  P       81.173     206.562      69.907
  C       80.791     206.171      67.368
  O       81.721     206.471      68.399
  C       80.848     207.233      66.273
  O       80.613     208.539      66.878
  C       82.193     207.300      65.528
  O       81.945     207.600      64.149
  C       82.869     208.502      66.161
  O       83.859     209.076      65.315
  C       81.666     209.407      66.411
  N       84.298     213.641      66.973
  C       84.018     212.902      65.842
  N       84.573     213.317      64.685
  N       83.260     211.839      65.843
  C       82.751     211.542      67.063
  C       82.956     212.189      68.260
  C       83.812     213.356      68.248
  O       84.114     214.037      69.224
  N       82.313     211.539      69.285
  C       81.739     210.493      68.711
  N       81.980     210.452      67.365
  O       82.501     206.778      70.776
  O       80.168     207.633      70.155
  H       84.187     209.894      65.741
  H       82.282     207.239      71.607
  H       84.903     214.441      66.921
  H       81.165     209.735      69.224
  H       81.319     209.905      65.495
  H       83.345     208.210      67.105
  H       85.144     214.146      64.595
  H       82.788     206.384      65.605
  H       84.344     212.809      63.837
  H       80.025     207.058      65.567
  H       79.781     206.150      67.792
  H       81.018     205.184      66.954
  P       82.349     206.501      63.054
  C       79.932     206.410      62.101
  O       81.031     205.686      62.633
  O       83.182     205.429      63.906
  O       83.154     207.042      61.922
  H       83.893     205.051      63.354
  H       79.136     205.733      61.871
  H       80.237     206.918      61.210
  H       79.594     207.125      62.821

 6  7  8  9  10  11  12  13  14  15  26  29  33  34 0
 6-311+G(2d,p)
 ****
 36  38  39  40  41 0
 6-311+G(2d,p)
 ****
 1  2  3  4  5  16  17  18  19  20  21  22  23  24  25 0
 3-21G
 ****
 27  28  30  31  32  35  37  42  43  44  45  46  47 0
 3-21G
 ****
 48  49 0
 3-21G
 ****


