%nproc=1
%NoSave
%Mem=1900MB
#P OB98/GEN NMR

erre ene a

0 1
  C      756.384     231.709      96.461
  O      756.635     232.594      97.533
  H      755.782     230.873      96.830
  H      757.319     231.314      96.059
  H      755.822     232.216      95.671
  P      757.540     233.893      97.257
  C      759.765     233.112      98.310
  O      758.620     233.945      98.445
  C      760.623     233.191      99.577
  O      761.765     232.317      99.468
  C      761.172     234.579      99.879
  O      760.191     235.383     100.518
  C      762.325     234.220     100.796
  O      761.827     233.913     102.115
  C      762.883     232.956     100.129
  N      767.873     232.731      99.194
  C      767.191     232.527     100.377
  N      767.931     232.261     101.475
  N      765.880     232.602     100.474
  C      765.273     232.941      99.319
  C      765.848     233.181      98.090
  C      767.284     233.031      97.981
  O      767.938     233.168      96.942
  N      764.921     233.589      97.171
  C      763.771     233.547      97.826
  N      763.933     233.172      99.141
  O      756.797     235.175      97.055
  O      758.420     233.493      95.980
  H      761.247     233.138     102.024
  H      757.979     233.772      95.153
  H      768.888     232.662      99.182
  H      762.810     233.786      97.399
  H      763.285     232.245     100.863
  H      763.047     235.044     100.912
  H      768.938     232.349     101.492
  H      761.564     235.062      98.973
  H      767.443     232.172     102.356
  H      760.014     232.819     100.419
  H      760.328     233.466      97.448
  H      759.463     232.072      98.138
  P      760.150     236.978     100.327
  C      760.564     237.456     102.842
  O      759.671     237.565     101.759
  O      759.373     237.460      99.165
  O      761.693     237.409     100.312
  H      762.104     237.333      99.410
  H      760.118     237.882     103.716
  H      761.469     237.979     102.612
  H      760.784     236.424     103.020

 6  7  8  9  10  11  12  13  14  15  26  29  33  34 0
 6-311+G(2d,p)
 ****
 36  38  39  40  41 0
 6-311+G(2d,p)
 ****
 1  2  3  4  5  16  17  18  19  20  21  22  23  24  25 0
 3-21G
 ****
 27  28  30  31  32  35  37  42  43  44  45  46  47 0
 3-21G
 ****
 48  49 0
 3-21G
 ****


