%nproc=1
%NoSave
%Mem=1900MB
#P OB98/GEN NMR

erre ene a

0 1
  C       72.201     210.619    -331.126
  O       71.464     210.489    -329.922
  P       71.893     209.423    -328.797
  C       69.986     207.866    -329.576
  O       71.383     208.007    -329.351
  C       69.679     206.442    -330.034
  O       70.254     206.217    -331.338
  C       70.255     205.352    -329.136
  O       69.489     205.205    -327.950
  C       70.235     204.156    -330.086
  O       68.913     203.598    -330.155
  C       70.594     204.812    -331.432
  N       72.003     204.641    -331.791
  C       72.531     203.352    -331.646
  O       71.827     202.422    -331.251
  N       73.843     203.134    -331.991
  C       74.572     204.121    -332.418
  N       75.842     203.833    -332.809
  C       74.073     205.501    -332.531
  C       72.789     205.687    -332.212
  O       71.441     209.754    -327.416
  O       73.481     209.300    -328.948
  H       68.612     203.463    -329.237
  H       73.981     209.961    -328.407
  H       74.722     206.295    -332.882
  H       72.342     206.672    -332.286
  H       69.970     204.404    -332.237
  H       70.921     203.356    -329.793
  H       71.295     205.585    -328.870
  H       68.587     206.332    -330.116
  H       76.082     202.849    -332.885
  H       69.683     208.565    -330.364
  H       76.364     204.460    -333.410
  H       69.442     208.109    -328.658
  P       70.285     204.971    -326.576
  C       70.146     202.387    -326.790
  O       70.982     203.527    -326.715
  O       69.116     204.749    -325.508
  O       71.199     206.091    -326.198
  H       68.970     205.562    -324.992
  H       70.751     201.540    -327.119
  H       69.340     202.545    -327.516
  H       69.729     202.165    -325.811
  H       71.756     211.377    -331.736
  H       72.193     209.687    -331.652
  H       73.210     210.891    -330.899

 3  4  5  6  7  8  9  10  11  12  13  23  27  28  29  30  32 0
 6-311+G(2d,p)
 ****
 34  35 0
 6-311+G(2d,p)
 ****
 1  2  14  15  16  17  18  19  20  21  22  24  25  26 0
 3-21G
 ****
 31  33  36  37  38  39  40  41  42  43  44  45  46 0
 3-21G
 ****


