%nproc=1
%NoSave
%Mem=1900MB
#P OB98/GEN NMR

erre ene a

0 1
  C      -14.396       5.463     -60.512
  O      -15.545       4.948     -59.875
  H      -14.709       6.044     -61.383
  H      -13.762       4.641     -60.854
  H      -13.830       6.115     -59.842
  P      -15.400       4.294     -58.419
  C      -14.816       6.281     -56.880
  O      -15.840       5.432     -57.377
  C      -15.424       7.391     -56.019
  O      -16.388       8.123     -56.835
  C      -16.168       6.865     -54.775
  O      -16.007       7.813     -53.714
  C      -17.603       6.866     -55.260
  O      -18.518       6.855     -54.194
  C      -17.627       8.136     -56.105
  N      -18.793       8.173     -56.984
  C      -20.007       8.512     -56.401
  O      -20.144       8.765     -55.206
  N      -21.097       8.480     -57.227
  C      -21.107       8.044     -58.519
  O      -22.126       7.961     -59.189
  C      -19.800       7.647     -59.068
  C      -18.719       7.734     -58.290
  O      -14.089       3.649     -58.119
  O      -16.622       3.264     -58.325
  H      -18.549       7.734     -53.772
  H      -16.447       2.590     -57.643
  H      -21.985       8.734     -56.822
  H      -19.774       7.281     -60.085
  H      -17.744       7.433     -58.654
  H      -17.629       9.030     -55.469
  H      -17.794       5.981     -55.874
  H      -15.823       5.880     -54.453
  H      -14.637       8.100     -55.740
  H      -14.288       6.718     -57.734
  H      -14.108       5.691     -56.288
  P      -15.173       7.464     -52.387
  C      -12.935       8.434     -53.187
  O      -13.957       8.500     -52.198
  O      -14.769       6.029     -52.277
  O      -16.167       7.843     -51.189
  H      -16.161       7.123     -50.530
  H      -12.180       9.160     -52.969
  H      -13.356       8.636     -54.149
  H      -12.501       7.456     -53.186

 6  7  8  9  10  11  12  13  14  15  16  26  31  32  33  34  35 0
 6-311+G(2d,p)
 ****
 36  37 0
 6-311+G(2d,p)
 ****
 1  2  3  4  5  17  18  19  20  21  22  23  24  25 0
 3-21G
 ****
 27  28  29  30  38  39  40  41  42  43  44  45 0
 3-21G
 ****


