%nproc=1
%NoSave
%Mem=1900MB
#P OB98/GEN NMR

erre ene a

0 1
  C     1448.167    -371.282     437.537
  O     1448.151    -372.730     437.574
  P     1446.884    -373.408     438.321
  C     1445.956    -374.896     436.355
  O     1445.798    -373.713     437.185
  C     1445.293    -376.089     437.040
  O     1443.972    -375.763     437.421
  C     1445.210    -377.311     436.155
  O     1446.477    -377.984     436.066
  C     1444.126    -378.121     436.880
  O     1444.699    -378.955     437.895
  C     1443.225    -377.000     437.493
  N     1441.952    -376.890     436.815
  C     1440.844    -377.428     437.515
  O     1441.011    -377.915     438.614
  N     1439.602    -377.349     436.923
  C     1439.460    -376.857     435.720
  N     1438.210    -376.818     435.199
  C     1440.613    -376.331     434.952
  C     1441.805    -376.380     435.546
  O     1446.239    -372.203     439.119
  O     1447.242    -374.565     439.189
  H     1445.009    -378.357     438.606
  H     1445.786    -372.538     439.932
  H     1440.447    -375.900     433.972
  H     1442.704    -375.994     435.040
  H     1443.047    -377.222     438.530
  H     1443.599    -378.795     436.184
  H     1444.859    -377.021     435.148
  H     1445.879    -376.310     437.960
  H     1437.484    -377.211     435.744
  H     1447.042    -375.062     436.227
  H     1438.035    -376.422     434.295
  H     1445.523    -374.706     435.380
  P     1446.714    -378.902     434.803
  C     1447.548    -376.899     433.448
  O     1446.600    -377.914     433.529
  O     1445.352    -379.729     434.698
  O     1447.934    -379.800     434.828
  H     1445.439    -380.427     434.002
  H     1447.465    -376.374     432.468
  H     1448.540    -377.269     433.534
  H     1447.368    -376.142     434.237
  H     1449.044    -370.948     437.023
  H     1448.172    -370.900     438.536
  H     1447.297    -370.929     437.025

 3  4  5  6  7  8  9  10  11  12  13  21  23  27  28  29  30  32 0
 6-311+G(2d,p)
 ****
 34  35 0
 6-311+G(2d,p)
 ****
 1  2  14  15  16  17  18  19  20  22  24  25  26 0
 3-21G
 ****
 31  33  36  37  38  39  40  41  42  43  44  45  46 0
 3-21G
 ****


