%nproc=1
%NoSave
%Mem=1900MB
#P OB98/GEN NMR

erre ene a

0 1
  C      116.788    -324.175    -261.153
  O      116.643    -324.460    -259.777
  H      116.313    -323.220    -261.392
  H      117.853    -324.108    -261.392
  H      116.342    -324.972    -261.754
  P      115.146    -324.561    -259.211
  C      113.456    -326.488    -259.597
  O      114.763    -326.122    -259.179
  C      112.694    -327.124    -258.437
  O      113.383    -328.340    -258.050
  C      112.567    -326.233    -257.189
  O      111.189    -326.041    -256.856
  C      113.221    -327.040    -256.078
  O      112.519    -326.964    -254.838
  C      113.232    -328.461    -256.631
  N      114.543    -331.456    -252.721
  C      113.335    -331.137    -253.236
  N      113.059    -330.419    -254.344
  C      114.191    -330.038    -254.958
  C      115.492    -330.306    -254.569
  C      115.650    -331.038    -253.379
  N      116.879    -331.316    -252.824
  N      116.395    -329.739    -255.447
  C      115.654    -329.101    -256.330
  N      114.315    -329.238    -256.063
  O      114.260    -323.982    -260.414
  O      114.898    -323.823    -257.939
  H      112.942    -327.606    -254.237
  H      113.622    -323.331    -260.067
  H      112.475    -331.499    -252.679
  H      116.026    -328.496    -257.147
  H      112.290    -328.988    -256.435
  H      114.240    -326.668    -255.920
  H      113.059    -325.260    -257.312
  H      111.701    -327.417    -258.795
  H      113.522    -327.212    -260.417
  H      116.898    -331.741    -251.911
  H      117.705    -330.913    -253.249
  H      112.934    -325.596    -259.961
  P      110.745    -324.546    -256.457
  C      111.481    -322.474    -257.854
  O      110.723    -323.677    -257.808
  O      112.031    -323.987    -255.682
  O      109.513    -324.481    -255.622
  H      111.763    -323.297    -255.047
  H      111.363    -322.015    -258.813
  H      112.515    -322.697    -257.690
  H      111.135    -321.805    -257.094

 6  7  8  9  10  11  12  13  14  15  25  28  32  33  34  35 0
 6-311+G(2d,p)
 ****
 36  39  40 0
 6-311+G(2d,p)
 ****
 1  2  3  4  5  16  17  18  19  20  21  22  23  24 0
 3-21G
 ****
 26  27  29  30  31  37  38  41  42  43  44  45  46  47  48 0
 3-21G
 ****


