%nproc=1
%NoSave
%Mem=1900MB
#P OB98/GEN NMR

erre ene a

0 1
  C      291.348     -38.580     313.166
  O      291.440     -39.970     312.940
  H      291.668     -38.057     312.263
  H      292.009     -38.299     313.990
  H      290.323     -38.281     313.400
  P      290.624     -40.961     313.892
  C      290.462     -42.675     311.968
  O      290.805     -42.456     313.331
  C      290.610     -44.145     311.578
  O      289.809     -44.964     312.457
  C      290.129     -44.426     310.152
  O      291.111     -44.227     309.150
  C      289.724     -45.895     310.239
  O      290.839     -46.760     309.967
  C      289.267     -46.051     311.694
  N      284.906     -48.523     310.686
  C      286.173     -48.758     310.181
  N      286.272     -49.750     309.271
  N      287.226     -48.068     310.533
  C      286.951     -47.046     311.375
  C      285.736     -46.704     311.924
  C      284.589     -47.519     311.588
  O      283.450     -47.363     312.020
  N      285.834     -45.577     312.707
  C      287.086     -45.195     312.557
  N      287.822     -46.098     311.824
  O      289.092     -40.643     313.535
  O      290.868     -40.794     315.361
  H      291.648     -46.322     310.296
  H      288.538     -40.783     314.324
  H      284.141     -49.106     310.401
  H      287.523     -44.303     312.992
  H      289.656     -46.977     312.137
  H      288.954     -46.132     309.500
  H      285.483     -50.253     308.903
  H      289.234     -43.839     309.923
  H      287.141     -49.829     308.739
  H      291.655     -44.453     311.717
  H      291.140     -42.060     311.375
  H      289.445     -42.327     311.771
  P      290.733     -43.550     307.753
  C      293.208     -43.273     306.918
  O      291.923     -43.820     306.723
  O      290.860     -41.986     308.064
  O      289.387     -43.906     307.209
  H      289.984     -41.598     308.242
  H      293.850     -43.576     306.117
  H      293.607     -43.623     307.847
  H      293.142     -42.205     306.938

 6  7  8  9  10  11  12  13  14  15  26  29  33  34 0
 6-311+G(2d,p)
 ****
 36  38  39  40  41 0
 6-311+G(2d,p)
 ****
 1  2  3  4  5  16  17  18  19  20  21  22  23  24  25 0
 3-21G
 ****
 27  28  30  31  32  35  37  42  43  44  45  46  47 0
 3-21G
 ****
 48  49 0
 3-21G
 ****


