%nproc=1
%NoSave
%Mem=1900MB
#P OB98/GEN NMR

erre ene a

0 1
  C      -12.852      31.646       1.686
  O      -12.197      30.945       2.726
  H      -12.145      31.796       0.867
  H      -13.193      32.621       2.042
  H      -13.699      31.062       1.318
  P      -13.057      30.652       4.047
  C      -13.103      33.130       4.794
  O      -12.634      31.817       5.066
  C      -14.168      33.538       5.807
  O      -15.353      32.742       5.633
  C      -13.749      33.368       7.262
  O      -12.993      34.487       7.695
  C      -15.105      33.314       7.949
  O      -15.611      34.652       8.126
  C      -15.974      32.557       6.930
  N      -18.148      28.203       5.300
  C      -18.329      29.488       4.929
  N      -17.760      30.600       5.442
  C      -16.912      30.286       6.436
  C      -16.628      29.020       6.925
  C      -17.285      27.942       6.308
  N      -17.099      26.632       6.691
  N      -15.713      29.085       7.954
  C      -15.406      30.362       8.044
  N      -16.131      31.135       7.172
  O      -12.983      29.259       4.572
  O      -14.513      31.122       3.574
  H      -15.136      35.034       8.888
  H      -14.454      31.938       3.046
  H      -19.028      29.646       4.113
  H      -14.653      30.777       8.705
  H      -16.985      32.976       6.871
  H      -15.056      32.859       8.940
  H      -13.225      32.420       7.426
  H      -14.445      34.581       5.603
  H      -13.518      33.181       3.780
  H      -17.748      25.950       6.331
  H      -16.557      26.456       7.525
  H      -12.245      33.807       4.850
  P      -11.408      34.379       7.919
  C      -11.614      32.970      10.059
  O      -11.224      34.220       9.504
  O      -10.618      35.466       7.279
  O      -11.030      32.928       7.366
  H      -10.067      32.870       7.215
  H      -11.447      32.981      11.116
  H      -11.036      32.187       9.615
  H      -12.653      32.802       9.864

 6  7  8  9  10  11  12  13  14  15  25  28  32  33  34  35 0
 6-311+G(2d,p)
 ****
 36  39  40 0
 6-311+G(2d,p)
 ****
 1  2  3  4  5  16  17  18  19  20  21  22  23  24 0
 3-21G
 ****
 26  27  29  30  31  37  38  41  42  43  44  45  46  47 0
 3-21G
 ****
 48 0
 3-21G
 ****


