%nproc=1
%NoSave
%Mem=1900MB
#P OB98/GEN NMR

erre ene a

0 1
  C     -180.830     447.472    -263.589
  O     -181.473     446.267    -263.995
  P     -182.603     446.351    -265.131
  C     -182.819     445.579    -267.658
  O     -182.133     445.531    -266.422
  C     -182.356     444.397    -268.531
  O     -180.934     444.453    -268.745
  C     -182.663     443.036    -267.911
  O     -183.971     442.592    -268.225
  C     -181.570     442.168    -268.509
  O     -181.897     441.812    -269.869
  C     -180.367     443.140    -268.480
  N     -179.566     443.212    -267.232
  C     -178.200     442.923    -267.270
  O     -177.588     442.589    -268.279
  N     -177.533     443.037    -266.071
  C     -178.034     443.561    -264.917
  O     -177.371     443.697    -263.893
  C     -179.435     443.992    -264.977
  C     -180.127     443.795    -266.102
  O     -182.558     447.871    -265.607
  O     -183.970     445.945    -264.671
  H     -181.110     441.393    -270.255
  H     -183.396     448.321    -265.394
  H     -176.565     442.756    -266.064
  H     -179.857     444.459    -264.093
  H     -181.167     444.108    -266.152
  H     -179.666     442.906    -269.291
  H     -181.471     441.233    -267.963
  H     -182.514     443.069    -266.828
  H     -182.855     444.478    -269.511
  H     -182.623     446.521    -268.173
  H     -183.897     445.524    -267.485
  P     -185.191     442.944    -267.243
  C     -186.535     445.111    -266.943
  O     -185.874     444.271    -267.864
  O     -184.870     443.004    -265.789
  O     -186.281     441.812    -267.579
  H     -186.215     441.069    -266.934
  H     -186.808     446.042    -267.457
  H     -185.872     445.354    -266.108
  H     -187.443     444.633    -266.582
  H     -180.107     447.253    -262.831
  H     -181.559     448.152    -263.201
  H     -180.340     447.916    -264.430

 3  4  5  6  7  8  9  10  11  12  13  23  28  29  30  31  32 0
 6-311+G(2d,p)
 ****
 33  34 0
 6-311+G(2d,p)
 ****
 1  2  14  15  16  17  18  19  20  21  22  24  25  26  27 0
 3-21G
 ****
 35  36  37  38  39  40  41  42  43  44  45 0
 3-21G
 ****


