%nproc=1
%NoSave
%Mem=1900MB
#P OB98/GEN NMR

erre ene a

0 1
  C       87.010      62.290     284.920
  O       86.240      63.394     285.360
  P       84.641      63.291     285.460
  C       82.660      63.618     283.851
  O       84.074      63.518     283.975
  C       82.236      63.530     282.387
  O       82.680      62.263     281.845
  C       80.727      63.611     282.182
  O       80.461      64.328     280.971
  C       80.295      62.170     281.988
  O       79.081      62.085     281.221
  C       81.534      61.572     281.312
  N       81.599      56.865     279.250
  C       81.463      58.088     278.694
  N       81.428      59.296     279.302
  C       81.611      59.158     280.627
  C       81.769      57.978     281.339
  C       81.755      56.786     280.591
  N       81.907      55.539     281.165
  N       81.899      58.234     282.691
  C       81.844      59.544     282.787
  N       81.680      60.150     281.567
  O       84.016      64.154     286.499
  O       84.356      61.740     285.724
  H       78.726      61.180     281.344
  H       83.613      61.632     286.350
  H       81.363      58.102     277.608
  H       81.902      60.104     283.710
  H       81.516      61.731     280.224
  H       80.109      61.707     282.965
  H       80.211      64.089     283.021
  H       82.748      64.324     281.825
  H       82.348      64.584     284.260
  H       82.006      54.753     280.540
  H       82.196      55.491     282.132
  H       82.185      62.822     284.438
  P       79.199      65.330     281.011
  C       76.683      64.955     281.576
  O       77.932      64.381     281.254
  O       79.162      66.229     279.820
  O       79.441      66.081     282.409
  H       79.974      65.530     283.022
  H       75.958      64.151     281.740
  H       76.328      65.574     280.745
  H       76.760      65.558     282.483
  H       88.047      62.555     284.922
  H       86.713      62.021     283.928
  H       86.852      61.460     285.577

 3  4  5  6  7  8  9  10  11  12  22  25  29  30  31  32 0
 6-311+G(2d,p)
 ****
 33  36  37 0
 6-311+G(2d,p)
 ****
 1  2  13  14  15  16  17  18  19  20  21  23  24  26 0
 3-21G
 ****
 27  28  34  35  38  39  40  41  42  43  44  45  46  47  48 0
 3-21G
 ****


