%nproc=1
%NoSave
%Mem=1900MB
#P OB98/GEN NMR

erre ene a

0 1
  C       18.695      -5.811    -703.520
  O       18.744      -5.138    -702.274
  H       18.393      -6.845    -703.343
  H       19.680      -5.802    -703.989
  H       17.964      -5.335    -704.177
  P       19.151      -3.581    -702.313
  C       19.076      -3.600    -699.710
  O       19.799      -3.245    -700.885
  C       20.031      -4.185    -698.677
  O       20.392      -5.539    -699.054
  C       21.348      -3.432    -698.554
  O       21.225      -2.246    -697.795
  C       22.230      -4.484    -697.903
  O       22.049      -4.510    -696.485
  C       21.713      -5.790    -698.525
  N       26.387      -7.564    -699.578
  C       25.777      -7.263    -698.411
  N       24.525      -6.803    -698.222
  C       23.869      -6.701    -699.387
  C       24.360      -6.974    -700.655
  C       25.687      -7.434    -700.737
  N       26.312      -7.727    -701.917
  N       23.403      -6.709    -701.609
  C       22.354      -6.285    -700.938
  N       22.587      -6.266    -699.591
  O       17.729      -2.838    -702.273
  O       19.965      -3.168    -703.496
  H       21.117      -4.773    -696.329
  H       17.487      -2.558    -703.174
  H       26.381      -7.384    -697.523
  H       21.404      -5.970    -701.375
  H       21.626      -6.595    -697.791
  H       23.286      -4.287    -698.104
  H       21.745      -3.207    -699.560
  H       19.515      -4.229    -697.700
  H       18.315      -4.347    -699.963
  H       18.574      -2.708    -699.319
  H       27.286      -7.984    -701.904
  H       25.835      -7.517    -702.788
  P       21.582      -0.854    -698.515
  C       22.507       0.327    -696.381
  O       22.772      -0.176    -697.683
  O       20.315       0.080    -698.199
  O       21.838      -0.968    -699.983
  H       20.139       0.667    -698.962
  H       23.403       0.743    -695.970
  H       22.163      -0.469    -695.754
  H       21.755       1.086    -696.438

 6  7  8  9  10  11  12  13  14  15  25  28  32  33  34  35 0
 6-311+G(2d,p)
 ****
 36  37  40 0
 6-311+G(2d,p)
 ****
 1  2  3  4  5  16  17  18  19  20  21  22  23  24 0
 3-21G
 ****
 26  27  29  30  31  38  39 41  42  43  44  45  46  47  48 0
 3-21G
 ****


