%nproc=1
%NoSave
%Mem=1900MB
#P OB98/GEN NMR

erre ene a

0 1
  C     -182.572     217.156     -73.062
  O     -183.762     217.518     -73.734
  P     -184.056     219.052     -74.087
  C     -182.767     218.966     -76.308
  O     -182.876     219.586     -75.031
  C     -182.856     220.010     -77.418
  O     -184.173     220.606     -77.457
  C     -181.899     221.178     -77.250
  O     -180.559     220.813     -77.530
  C     -182.504     222.192     -78.211
  O     -182.109     221.913     -79.563
  C     -184.014     221.930     -78.027
  N     -184.659     222.942     -77.207
  C     -184.707     224.232     -77.748
  O     -184.153     224.481     -78.819
  N     -185.376     225.209     -77.053
  C     -185.841     224.954     -75.871
  N     -186.545     225.941     -75.256
  C     -185.667     223.649     -75.198
  C     -185.093     222.693     -75.927
  O     -184.367     219.926     -72.919
  O     -185.305     218.985     -75.089
  H     -185.991     219.607     -74.779
  H     -182.639     222.503     -80.134
  H     -186.015     223.508     -74.187
  H     -184.943     221.698     -75.523
  H     -184.513     221.893     -79.003
  H     -182.192     223.217     -77.988
  H     -181.964     221.563     -76.225
  H     -182.680     219.503     -78.376
  H     -186.660     226.814     -75.754
  H     -183.579     218.242     -76.416
  H     -187.209     225.752     -74.508
  H     -181.816     218.425     -76.364
  P     -179.409     221.715     -76.870
  C     -178.900     220.307     -74.759
  O     -179.467     221.488     -75.287
  O     -179.956     223.208     -77.062
  O     -178.059     221.549     -77.488
  H     -179.211     223.810     -77.245
  H     -178.707     220.457     -73.695
  H     -177.959     220.057     -75.256
  H     -179.606     219.480     -74.874
  H     -182.554     216.096     -72.915
  H     -182.535     217.648     -72.113
  H     -181.727     217.449     -73.650

 3  4  5  6  7  8  9  10  11  12  13  24  27  28  29  30  32 0
 6-311+G(2d,p)
 ****
 34  35 0
 6-311+G(2d,p)
 ****
 1  2  14  15  16  17  18  19  20  21  22  23  25  26 0
 3-21G
 ****
 31  33  36  37  38  39  40  41  42  43  44  45  46 0
 3-21G
 ****


