%nproc=1
%NoSave
%Mem=1900MB
#P OB98/GEN NMR

erre ene a

0 1
  C      767.455      56.250    -961.235
  O      766.024      56.244    -961.232
  P      765.294      55.102    -960.372
  C      764.900      52.589    -960.979
  O      764.888      53.948    -961.416
  C      765.020      51.644    -962.173
  O      766.287      51.843    -962.834
  C      764.976      50.163    -961.808
  O      763.654      49.689    -961.617
  C      765.590      49.555    -963.027
  O      764.629      49.473    -964.096
  C      766.683      50.561    -963.380
  N      771.329      48.784    -964.573
  C      770.231      48.957    -965.325
  N      769.032      49.439    -964.930
  C      769.025      49.694    -963.610
  C      770.071      49.530    -962.728
  C      771.284      49.052    -963.247
  N      772.429      48.887    -962.495
  N      769.700      49.888    -961.436
  C      768.432      50.309    -961.574
  N      768.005      50.190    -962.846
  O      763.884      55.775    -960.002
  O      766.054      54.642    -959.166
  H      763.837      49.032    -963.740
  H      763.517      55.349    -959.199
  H      770.320      48.717    -966.372
  H      767.824      50.656    -960.744
  H      766.797      50.696    -964.468
  H      765.969      48.531    -962.855
  H      765.603      49.956    -960.929
  H      764.208      51.880    -962.886
  H      763.951      52.403    -960.456
  H      773.296      48.747    -962.978
  H      772.442      49.302    -961.554
  H      765.735      52.455    -960.282
  P      763.464      48.287    -960.883
  C      764.653      46.017    -961.385
  O      764.020      47.196    -961.911
  O      761.878      48.048    -960.903
  O      764.033      48.251    -959.498
  H      761.619      47.480    -960.163
  H      764.701      45.259    -962.194
  H      764.102      45.627    -960.548
  H      765.672      46.249    -961.075
  H      767.807      57.057    -961.843
  H      767.815      55.323    -961.630
  H      767.813      56.375    -960.234

 3  4  5  6  7  8  9  10  11  12  22  25  29  30  31  32 0
 6-311+G(2d,p)
 ****
 33  36  37 0
 6-311+G(2d,p)
 ****
 1  2  13  14  15  16  17  18  19  20  21  23  24  26 0
 3-21G
 ****
 27  28  34  35  38  39  40  41  42  43  44  45  46  47  48 0
 3-21G
 ****


