%nproc=1
%NoSave
%Mem=1900MB
#P OB98/GEN NMR

erre ene a

0 1
  C       42.151     696.963    -252.708
  O       41.500     695.737    -252.455
  P       40.002     695.698    -251.891
  C       40.323     695.728    -249.347
  O       40.019     694.930    -250.480
  C       41.045     694.912    -248.274
  O       40.266     693.734    -247.955
  C       42.453     694.450    -248.670
  O       43.277     694.536    -247.507
  C       42.240     693.003    -249.066
  O       43.438     692.239    -248.996
  C       41.145     692.595    -248.071
  N       40.426     691.406    -248.499
  C       41.057     690.177    -248.294
  O       42.223     690.137    -247.903
  N       40.353     689.023    -248.560
  C       39.198     689.103    -249.150
  N       38.505     687.939    -249.330
  C       38.616     690.380    -249.605
  C       39.247     691.480    -249.215
  O       38.971     695.202    -252.852
  O       39.701     697.218    -251.466
  H       38.872     697.510    -251.893
  H       43.265     691.347    -249.369
  H       37.713     690.383    -250.201
  H       38.877     692.467    -249.468
  H       41.575     692.413    -247.081
  H       41.862     692.952    -250.099
  H       42.889     695.063    -249.470
  H       41.095     695.524    -247.358
  H       38.926     687.089    -248.975
  H       39.383     696.109    -248.934
  H       37.498     687.932    -249.484
  H       40.926     696.593    -249.645
  P       44.741     695.189    -247.650
  C       46.116     692.985    -247.641
  O       45.795     694.188    -246.972
  O       44.675     696.381    -246.578
  O       45.095     695.740    -248.997
  H       45.314     697.079    -246.833
  H       46.787     692.402    -247.006
  H       46.626     693.196    -248.592
  H       45.211     692.395    -247.830
  H       43.137     696.774    -253.078
  H       42.213     697.528    -251.801
  H       41.597     697.517    -253.437

 3  4  5  6  7  8  9  10  11  12  13  24  27  28  29  30  32 0
 6-311+G(2d,p)
 ****
 34  35 0
 6-311+G(2d,p)
 ****
 1  2  14  15  16  17  18  19  20  21  22  23  25  26 0
 3-21G
 ****
 31  33  36  37  38  39  40  41  42  43  44  45  46 0
 3-21G
 ****


