%nproc=1
%NoSave
%Mem=1900MB
#P OB98/GEN NMR

erre ene a

0 1
  C     -156.913      94.843     -34.017
  O     -156.585      94.111     -32.830
  P     -157.401      92.813     -32.355
  C     -155.982      90.827     -33.193
  O     -157.150      91.620     -33.394
  C     -156.301      89.330     -33.257
  O     -156.777      88.967     -34.567
  C     -155.111      88.413     -32.993
  O     -154.800      88.361     -31.613
  C     -155.616      87.100     -33.584
  O     -156.462      86.405     -32.652
  C     -156.426      87.590     -34.800
  N     -155.704      87.428     -36.056
  C     -156.123      86.384     -36.888
  O     -157.019      85.621     -36.529
  N     -155.496      86.219     -38.101
  C     -154.491      86.978     -38.417
  N     -153.915      86.772     -39.633
  C     -153.960      88.028     -37.529
  C     -154.609      88.196     -36.378
  O     -158.843      93.073     -32.065
  O     -156.649      92.313     -31.030
  H     -155.944      86.304     -31.829
  H     -157.297      91.890     -30.435
  H     -153.105      88.619     -37.816
  H     -154.292      88.954     -35.670
  H     -157.376      87.045     -34.873
  H     -154.802      86.419     -33.849
  H     -154.241      88.758     -33.567
  H     -157.105      89.125     -32.538
  H     -154.306      86.048     -40.220
  H     -155.571      91.067     -32.207
  H     -153.131      87.308     -39.975
  H     -155.243      91.092     -33.956
  P     -153.318      88.711     -31.115
  C     -153.216      91.181     -31.803
  O     -152.749      89.871     -32.063
  O     -152.409      87.541     -30.928
  O     -153.556      89.477     -29.728
  H     -152.805      89.295     -29.134
  H     -152.495      91.896     -32.204
  H     -153.328      91.354     -30.729
  H     -154.176      91.330     -32.299
  H     -156.235      95.664     -34.129
  H     -157.914      95.214     -33.942
  H     -156.835      94.198     -34.867

 3  4  5  6  7  8  9  10  11  12  13  23  27  28  29  30  32 0
 6-311+G(2d,p)
 ****
 34  35 0
 6-311+G(2d,p)
 ****
 1  2  14  15  16  17  18  19  20  21  22  24  25  26 0
 3-21G
 ****
 31  33  36  37  38  39  40  41  42  43  44  45  46 0
 3-21G
 ****


