%nproc=1
%NoSave
%Mem=1900MB
#P OB98/GEN NMR

erre ene a

0 1
  C       99.996     100.890      25.403
  O      100.846     100.881      26.536
  P      100.736      99.660      27.565
  C      102.445      98.383      26.079
  O      101.226      98.336      26.802
  C      103.359      97.229      26.499
  O      104.525      97.194      25.623
  C      103.874      97.334      27.942
  O      103.995      96.000      28.455
  C      105.254      97.934      27.754
  O      106.109      97.730      28.868
  C      105.689      97.214      26.474
  N      106.826      97.856      25.818
  C      108.090      97.610      26.345
  O      108.301      96.892      27.320
  N      109.125      98.275      25.745
  C      109.016      99.208      24.756
  O      109.970      99.855      24.342
  C      107.656      99.428      24.239
  C      106.641      98.753      24.783
  O       99.158      99.449      27.717
  O      101.398      99.892      28.881
  H      106.991      98.066      28.626
  H       98.837      99.859      28.542
  H      110.049      98.101      26.106
  H      107.536     100.146      23.438
  H      105.626      98.910      24.435
  H      105.941      96.169      26.696
  H      105.162      99.015      27.593
  H      103.234      97.937      28.593
  H      102.818      96.285      26.355
  H      102.947      99.330      26.283
  H      102.237      98.338      25.004
  P      103.833      95.787      30.039
  C      101.221      95.867      30.066
  O      102.441      96.460      30.454
  O      104.936      96.810      30.592
  O      104.050      94.377      30.481
  H      104.926      97.661      30.123
  H      101.291      94.776      30.049
  H      100.944      96.226      29.071
  H      100.443      96.159      30.776
  H      100.190     101.765      24.818
  H       98.975     100.894      25.723
  H      100.181     100.018      24.812

 3  4  5  6  7  8  9  10  11  12  13  23  28  29  30  31  32 0
 6-311+G(2d,p)
 ****
 33  34 0
 6-311+G(2d,p)
 ****
 1  2  14  15  16  17  18  19  20  21  22  24  25  26 0
 3-21G
 ****
 27  35  36  37  38  39  40  41  42  43  44  45 0
 3-21G
 ****


