%nproc=1
%NoSave
%Mem=1900MB
#P OB98/GEN NMR

erre ene a

0 1
  C        7.335    -110.420    -320.067
  O        8.210    -110.948    -319.076
  P        7.661    -111.024    -317.568
  C        9.073    -108.954    -316.892
  O        7.777    -109.531    -316.987
  C        9.036    -107.482    -317.300
  O        8.419    -107.340    -318.596
  C        8.236    -106.585    -316.365
  O        8.983    -106.196    -315.224
  C        7.974    -105.388    -317.262
  O        9.147    -104.554    -317.315
  C        7.741    -106.055    -318.627
  N        3.345    -103.708    -319.773
  C        4.562    -103.229    -319.452
  N        5.685    -103.916    -319.148
  C        5.448    -105.244    -319.157
  C        4.243    -105.874    -319.430
  C        3.154    -105.052    -319.764
  N        1.916    -105.545    -320.120
  N        4.385    -107.242    -319.344
  C        5.652    -107.432    -319.038
  N        6.335    -106.254    -318.921
  O        8.824    -111.813    -316.800
  O        6.334    -111.690    -317.413
  H        9.408    -104.369    -316.389
  H        8.468    -112.237    -315.994
  H        4.658    -102.146    -319.446
  H        6.114    -108.404    -318.891
  H        8.177    -105.479    -319.451
  H        7.148    -104.763    -316.910
  H        7.278    -107.052    -316.090
  H       10.073    -107.125    -317.378
  H        9.757    -109.490    -317.559
  H        1.248    -104.906    -320.519
  H        1.838    -106.541    -320.301
  H        9.435    -109.055    -315.859
  P        8.575    -106.876    -313.822
  C        7.252    -104.753    -313.105
  O        7.218    -106.141    -313.383
  O        9.670    -106.303    -312.811
  O        8.541    -108.366    -313.853
  H        9.794    -106.917    -312.061
  H        6.227    -104.367    -313.129
  H        7.844    -104.215    -313.852
  H        7.668    -104.582    -312.108
  H        7.826    -110.428    -321.018
  H        7.071    -109.415    -319.811
  H        6.450    -111.020    -320.118

 3  4  5  6  7  8  9  10  11  12  22  25  29  30  31  32 0
 6-311+G(2d,p)
 ****
 33  36  37 0
 6-311+G(2d,p)
 ****
 1  2  13  14  15  16  17  18  19  20  21  23  24  26 0
 3-21G
 ****
 27  28  34  35  38  39  40  41  42  43  44  45  46  47  48 0
 3-21G
 ****


