%nproc=1
%NoSave
%Mem=1900MB
#P OB98/GEN NMR

erre ene a

0 1
  C      369.342     719.241     233.939
  O      368.676     719.591     232.742
  P      367.451     720.615     232.749
  C      368.665     722.512     231.391
  O      368.031     722.092     232.580
  C      367.830     723.628     230.747
  O      367.589     724.683     231.701
  C      368.533     724.231     229.539
  O      368.100     723.607     228.337
  C      368.148     725.701     229.629
  O      366.838     725.915     229.081
  C      368.130     725.924     231.160
  N      369.411     726.190     231.849
  C      369.913     727.488     231.883
  O      369.338     728.451     231.395
  N      371.142     727.632     232.486
  C      371.859     726.637     233.075
  O      373.039     726.734     233.390
  C      371.155     725.357     233.249
  C      370.001     725.192     232.615
  O      366.964     720.586     234.273
  O      366.339     720.310     231.790
  H      366.895     725.748     228.127
  H      366.190     719.998     234.371
  H      371.573     728.549     232.393
  H      371.633     724.585     233.836
  H      369.472     724.244     232.688
  H      367.440     726.730     231.434
  H      368.834     726.323     229.052
  H      369.623     724.152     229.652
  H      366.859     723.216     230.451
  H      368.762     721.661     230.704
  H      369.678     722.874     231.604
  P      369.116     722.676     227.523
  C      367.719     720.583     228.011
  O      368.967     721.215     228.184
  O      370.500     723.199     227.396
  O      368.404     722.534     226.092
  H      368.802     723.177     225.460
  H      367.815     719.543     228.348
  H      367.410     720.601     226.973
  H      366.973     721.085     228.637
  H      370.127     718.548     233.721
  H      368.646     718.790     234.616
  H      369.756     720.120     234.387

 3  4  5  6  7  8  9  10  11  12  13  23  28  29  30  31  32 0
 6-311+G(2d,p)
 ****
 33  34 0
 6-311+G(2d,p)
 ****
 1  2  14  15  16  17  18  19  20  21  22  24  25  26  27 0
 3-21G
 ****
 35  36  37  38  39  40  41  42  43  44  45 0
 3-21G
 ****


