%nproc=1
%NoSave
%Mem=1900MB
#P OB98/GEN NMR

erre ene a

0 1
  C       10.142    -150.933     -39.754
  O       11.542    -150.797     -39.903
  P       12.519    -151.264     -38.725
  C       14.886    -152.260     -38.797
  O       13.573    -152.301     -39.344
  C       15.627    -153.561     -39.100
  O       14.925    -154.685     -38.528
  C       15.753    -153.871     -40.587
  O       16.758    -153.075     -41.184
  C       16.058    -155.363     -40.551
  O       17.452    -155.590     -40.289
  C       15.206    -155.832     -39.362
  N       13.171    -159.800     -41.836
  C       14.444    -159.364     -41.726
  N       14.903    -158.271     -41.079
  C       13.885    -157.591     -40.527
  C       12.534    -157.893     -40.584
  C       12.184    -159.074     -41.258
  N       10.898    -159.562     -41.324
  N       11.797    -156.930     -39.919
  C       12.686    -156.064     -39.480
  N       13.963    -156.456     -39.767
  O       11.841    -151.721     -37.476
  O       13.416    -149.969     -38.440
  H       17.713    -154.987     -39.567
  H       13.284    -149.681     -37.516
  H       15.195    -159.978     -42.215
  H       12.457    -155.155     -38.939
  H       15.743    -156.553     -38.736
  H       15.819    -155.864     -41.493
  H       14.789    -153.713     -41.083
  H       16.618    -153.507     -38.631
  H       14.804    -152.124     -37.715
  H       10.779    -160.488     -41.706
  H       10.215    -159.210     -40.658
  H       15.429    -151.409     -39.219
  P       16.637    -152.667     -42.727
  C       17.488    -150.757     -44.212
  O       17.350    -151.241     -42.890
  O       15.269    -152.768     -43.318
  O       17.659    -153.659     -43.459
  H       17.329    -153.862     -44.354
  H       18.322    -151.265     -44.703
  H       17.697    -149.686     -44.173
  H       16.571    -150.920     -44.785
  H        9.653    -150.572     -40.634
  H        9.817    -150.366     -38.907
  H        9.897    -151.964     -39.608

 3  4  5  6  7  8  9  10  11  12  22  25  29  30  31  32 0
 6-311+G(2d,p)
 ****
 33  36  37 0
 6-311+G(2d,p)
 ****
 1  2  13  14  15  16  17  18  19  20  21  23  24  26 0
 3-21G
 ****
 27  28  34  35  38  39  40  41  42  43  44  45  46  47  48 0
 3-21G
 ****


