%nproc=1
%NoSave
%Mem=1900MB
#P OB98/GEN NMR

erre ene a

0 1
  C      170.231      61.639     168.371
  O      168.849      61.738     168.657
  H      170.546      60.595     168.443
  H      170.406      61.991     167.352
  H      170.815      62.255     169.062
  P      168.401      61.564     170.187
  C      166.865      63.626     170.546
  O      168.145      63.046     170.755
  C      166.984      65.143     170.405
  O      167.528      65.681     171.647
  C      167.895      65.604     169.256
  O      167.311      66.761     168.653
  C      169.174      66.009     169.966
  O      169.928      66.969     169.234
  C      168.626      66.538     171.288
  N      172.727      69.027     172.980
  C      171.740      69.386     172.129
  N      170.651      68.676     171.774
  C      170.597      67.513     172.444
  C      171.522      67.016     173.347
  C      172.644      67.824     173.597
  N      173.689      67.439     174.407
  N      171.143      65.758     173.780
  C      170.026      65.495     173.132
  N      169.657      66.526     172.311
  O      169.769      61.121     170.897
  O      167.305      60.584     170.430
  H      169.327      67.682     168.937
  H      169.863      60.153     170.848
  H      171.846      70.363     171.668
  H      169.465      64.572     173.193
  H      168.252      67.566     171.209
  H      169.801      65.124     170.124
  H      168.066      64.835     168.493
  H      165.977      65.560     170.292
  H      166.228      63.399     171.404
  H      174.498      68.039     174.444
  H      173.692      66.503     174.787
  H      166.416      63.196     169.646
  P      167.427      66.901     167.059
  C      164.958      66.070     166.970
  O      166.257      66.038     166.384
  O      168.747      66.066     166.713
  O      167.527      68.312     166.579
  H      169.205      66.461     165.947
  H      164.297      65.446     166.405
  H      164.590      67.075     166.967
  H      165.012      65.713     167.977

 6  7  8  9  10  11  12  13  14  15  25  28  32  33  34  35 0
 6-311+G(2d,p)
 ****
 36  39  40 0
 6-311+G(2d,p)
 ****
 1  2  3  4  5  16  17  18  19  20  21  22  23  24 0
 3-21G
 ****
 26  27  29  30  31  37  38  41  42  43  44  45  46  47 0
 3-21G
 ****
 48 0
 3-21G
 ****


