%nproc=1
%NoSave
%Mem=1900MB
#P OB98/GEN NMR

erre ene a

0 1
  C     -414.435     126.725     125.403
  O     -414.623     127.012     124.032
  H     -414.244     127.662     125.932
  H     -413.572     126.067     125.535
  H     -415.327     126.258     125.829
  P     -415.100     125.835     123.055
  C     -412.910     124.581     122.502
  O     -414.095     124.606     123.285
  C     -411.764     123.913     123.272
  O     -412.208     122.595     123.716
  C     -410.481     123.703     122.442
  O     -409.375     123.766     123.356
  C     -410.699     122.288     121.934
  O     -409.545     121.736     121.357
  C     -411.244     121.644     123.215
  N     -411.857     120.331     123.043
  C     -411.010     119.232     122.941
  O     -409.781     119.284     122.989
  N     -411.628     118.018     122.771
  C     -412.976     117.806     122.714
  O     -413.473     116.693     122.593
  C     -413.817     119.007     122.819
  C     -413.229     120.197     122.984
  O     -415.312     126.219     121.630
  O     -416.457     125.312     123.731
  H     -417.223     125.673     123.245
  H     -408.793     121.849     121.977
  H     -411.032     117.210     122.699
  H     -414.888     118.873     122.763
  H     -413.825     121.098     123.076
  H     -410.445     121.569     123.964
  H     -411.456     122.288     121.144
  H     -410.349     124.452     121.660
  H     -411.559     124.500     124.177
  H     -412.639     125.614     122.259
  H     -413.105     124.035     121.573
  P     -408.355     125.001     123.422
  C     -406.735     123.928     121.709
  O     -407.541     125.052     122.038
  O     -407.475     125.000     124.632
  O     -409.273     126.315     123.382
  H     -408.808     127.053     123.817
  H     -406.254     124.097     120.768
  H     -407.350     123.055     121.643
  H     -405.994     123.786     122.468

 6  7  8  9  10  11  12  13  14  15  16  27  31  32  33  34  35 0
 6-311+G(2d,p)
 ****
 36  37 0
 6-311+G(2d,p)
 ****
 1  2  3  4  5  17  18  19  20  21  22  23  24  25 0
 3-21G
 ****
 26  28  29  30  38  39  40  41  42  43  44  45 0
 3-21G
 ****


