%nproc=1
%NoSave
%Mem=1900MB
#P OB98/GEN NMR

erre ene a

0 1
  C     -256.837    -148.578     322.092
  O     -255.701    -149.442     322.173
  P     -255.392    -150.354     320.887
  C     -255.810    -152.524     322.241
  O     -254.926    -151.807     321.388
  C     -255.084    -153.647     322.998
  O     -254.707    -154.720     322.097
  C     -253.809    -153.180     323.706
  O     -253.682    -153.945     324.906
  C     -252.709    -153.593     322.739
  O     -251.454    -153.685     323.402
  C     -253.284    -154.921     322.216
  N     -252.685    -155.341     320.951
  C     -251.364    -155.794     320.992
  O     -250.728    -155.763     322.050
  N     -250.777    -156.235     319.832
  C     -251.433    -156.173     318.715
  N     -250.802    -156.624     317.597
  C     -252.814    -155.649     318.616
  C     -253.369    -155.262     319.758
  O     -254.054    -149.709     320.290
  O     -256.494    -150.351     319.877
  H     -250.782    -153.962     322.747
  H     -254.157    -149.550     319.335
  H     -253.317    -155.607     317.660
  H     -254.372    -154.865     319.790
  H     -253.120    -155.727     322.948
  H     -252.626    -152.864     321.926
  H     -253.809    -152.112     323.944
  H     -255.781    -154.064     323.734
  H     -249.860    -156.983     317.709
  H     -256.618    -152.957     321.652
  H     -251.215    -156.622     316.683
  H     -256.280    -151.824     322.936
  P     -254.828    -153.819     326.014
  C     -253.308    -152.411     327.536
  O     -254.041    -153.619     327.400
  O     -255.308    -155.347     326.152
  O     -255.976    -152.908     325.749
  H     -256.068    -155.399     326.756
  H     -252.931    -152.348     328.559
  H     -253.952    -151.549     327.341
  H     -252.461    -152.410     326.848
  H     -256.933    -148.029     323.005
  H     -257.719    -149.162     321.933
  H     -256.709    -147.896     321.277

 3  4  5  6  7  8  9  10  11  12  13  21  23  27  28  29  30  32 0
 6-311+G(2d,p)
 ****
 34  35 0
 6-311+G(2d,p)
 ****
 1  2  14  15  16  17  18  19  20  22  24  25  26 0
 3-21G
 ****
 31  33  36  37  38  39  40  41  42  43  44  45  46 0
 3-21G
 ****


