%nproc=1
%NoSave
%Mem=1900MB
#P OB98/GEN NMR

erre ene a

0 1
  C     -148.530     144.831    -137.538
  O     -149.736     144.812    -136.774
  P     -150.315     146.241    -136.329
  C     -149.268     145.714    -134.016
  O     -150.357     146.284    -134.727
  C     -149.538     145.732    -132.509
  O     -149.693     147.070    -131.994
  C     -150.804     144.985    -132.114
  O     -150.556     143.590    -132.083
  C     -151.094     145.571    -130.738
  O     -150.332     144.903    -129.712
  C     -150.629     147.030    -130.889
  N     -154.781     149.186    -128.943
  C     -154.032     148.125    -128.473
  N     -154.434     147.575    -127.308
  N     -152.986     147.647    -129.093
  C     -152.701     148.294    -130.246
  C     -153.349     149.375    -130.797
  C     -154.509     149.892    -130.107
  O     -155.192     150.844    -130.469
  N     -152.730     149.799    -131.947
  C     -151.788     148.897    -132.151
  N     -151.685     148.000    -131.116
  O     -151.855     146.163    -136.757
  O     -149.625     147.391    -136.983
  H     -149.384     145.078    -129.859
  H     -152.022     146.756    -137.512
  H     -155.585     149.509    -128.430
  H     -151.138     148.864    -133.015
  H     -150.087     147.371    -129.997
  H     -152.145     145.460    -130.463
  H     -155.230     147.894    -126.779
  H     -151.619     145.230    -132.806
  H     -153.894     146.799    -126.942
  H     -148.669     145.277    -132.014
  H     -148.351     146.263    -134.233
  H     -149.114     144.691    -134.371
  P     -150.588     142.792    -133.470
  C     -153.038     141.942    -133.517
  O     -151.674     141.625    -133.331
  O     -149.186     142.018    -133.477
  O     -150.729     143.657    -134.681
  H     -148.775     142.093    -134.359
  H     -153.555     141.062    -133.907
  H     -153.170     142.769    -134.220
  H     -153.479     142.214    -132.553
  H     -148.242     143.828    -137.775
  H     -147.755     145.299    -136.969
  H     -148.690     145.380    -138.443

 3  4  5  6  7  8  9  10  11  12  23  26  30  31 0
 6-311+G(2d,p)
 ****
 33  35  36  37  38 0
 6-311+G(2d,p)
 ****
 1  2  13  14  15  16  17  18  19  20  21  22  24  25 0
 3-21G
 ****
 27  28  29  32  34  39  40  41  42  43  44  45  46  47  48  49 0
 3-21G
 ****


