%nproc=1
%NoSave
%Mem=1900MB
#P OB98/GEN NMR

erre ene a

0 1
  C     -279.951    -416.541    -138.484
  O     -280.623    -415.849    -139.545
  P     -279.964    -415.881    -141.003
  C     -280.751    -413.466    -141.566
  O     -280.750    -414.839    -141.931
  C     -282.152    -412.873    -141.728
  O     -283.025    -413.255    -140.639
  C     -282.172    -411.349    -141.761
  O     -281.869    -410.847    -143.055
  C     -283.629    -411.069    -141.425
  O     -284.445    -411.238    -142.599
  C     -283.939    -412.158    -140.389
  N     -285.393    -408.681    -137.015
  C     -285.769    -408.851    -138.334
  N     -286.667    -407.973    -138.821
  N     -285.298    -409.799    -139.102
  C     -284.424    -410.618    -138.476
  C     -283.972    -410.548    -137.176
  C     -284.483    -409.487    -136.339
  O     -284.178    -409.276    -135.170
  N     -283.077    -411.549    -136.905
  C     -283.000    -412.239    -138.030
  N     -283.786    -411.697    -139.019
  O     -280.444    -417.296    -141.579
  O     -278.474    -415.758    -141.007
  H     -284.102    -410.618    -143.272
  H     -279.794    -417.628    -142.227
  H     -285.777    -407.928    -136.469
  H     -282.394    -413.122    -138.173
  H     -284.960    -412.549    -140.488
  H     -283.786    -410.042    -141.079
  H     -287.104    -407.249    -138.271
  H     -281.518    -410.927    -140.987
  H     -286.980    -408.104    -139.779
  H     -282.579    -413.257    -142.666
  H     -280.037    -412.908    -142.177
  H     -280.391    -413.373    -140.536
  P     -280.625    -409.844    -143.198
  C     -281.758    -408.656    -145.207
  O     -280.628    -409.346    -144.716
  O     -279.366    -410.829    -143.111
  O     -280.565    -408.775    -142.158
  H     -278.610    -410.369    -142.702
  H     -281.525    -408.254    -146.194
  H     -282.028    -407.827    -144.543
  H     -282.606    -409.341    -145.298
  H     -280.508    -416.430    -137.577
  H     -278.972    -416.130    -138.354
  H     -279.872    -417.580    -138.729

 3  4  5  6  7  8  9  10  11  12  23  26  30  31 0
 6-311+G(2d,p)
 ****
 33  35  36  37  38 0
 6-311+G(2d,p)
 ****
 1  2  13  14  15  16  17  18  19  20  21  22  24  25 0
 3-21G
 ****
 27  28  29  32  34  39  40  41  42  43  44  45  46  47  48  49 0
 3-21G
 ****


