%nproc=1
%NoSave
%Mem=1900MB
#P OB98/GEN NMR

erre ene a

0 1
  C        4.759     228.035     -67.484
  O        3.690     227.805     -66.564
  P        3.188     229.079     -65.727
  C        0.683     228.413     -65.840
  O        1.671     229.384     -66.152
  C       -0.714     229.036     -65.866
  O       -0.828     230.168     -64.984
  C       -1.125     229.538     -67.244
  O       -1.559     228.455     -68.047
  C       -2.242     230.513     -66.898
  O       -3.501     229.830     -66.730
  C       -1.771     231.106     -65.561
  N       -2.615     236.104     -65.534
  C       -3.514     235.055     -65.564
  N       -4.822     235.383     -65.560
  N       -3.159     233.796     -65.591
  C       -1.817     233.616     -65.589
  C       -0.831     234.573     -65.534
  C       -1.236     235.962     -65.507
  O       -0.480     236.925     -65.458
  N        0.418     234.004     -65.485
  C        0.185     232.713     -65.641
  N       -1.157     232.419     -65.643
  O        4.020     230.289     -66.364
  O        3.429     228.959     -64.259
  H       -4.100     230.392     -66.207
  H        4.682     230.609     -65.722
  H       -2.944     237.054     -65.522
  H        0.946     231.953     -65.729
  H       -2.601     231.204     -64.850
  H       -2.397     231.252     -67.689
  H       -5.166     236.331     -65.537
  H       -0.291     230.074     -67.715
  H       -5.497     234.628     -65.573
  H       -1.422     228.269     -65.526
  H        0.877     227.985     -64.855
  H        0.757     227.591     -66.560
  P       -0.937     228.316     -69.517
  C        0.571     226.398     -68.634
  O        0.487     227.601     -69.372
  O       -0.572     229.829     -69.901
  O       -1.858     227.712     -70.525
  H       -0.850     230.008     -70.819
  H        1.386     225.793     -69.038
  H       -0.358     225.824     -68.687
  H        0.789     226.633     -67.588
  H        5.006     227.120     -67.980
  H        5.615     228.395     -66.953
  H        4.456     228.763     -68.208

 3  4  5  6  7  8  9  10  11  12  23  26  30  31 0
 6-311+G(2d,p)
 ****
 33  35  36  37  38 0
 6-311+G(2d,p)
 ****
 1  2  13  14  15  16  17  18  19  20  21  22  24  25 0
 3-21G
 ****
 27  28  29  32  34  39  40  41  42  43  44  45  46  47  48  49 0
 3-21G
 ****


