%nproc=1
%NoSave
%Mem=1900MB
#P OB98/GEN NMR

erre ene a

0 1
  C      -27.930    -843.605      53.487
  O      -28.853    -844.397      52.781
  H      -28.261    -842.563      53.509
  H      -27.860    -843.973      54.517
  H      -26.940    -843.671      53.024
  P      -29.129    -843.997      51.245
  C      -27.715    -845.872      50.142
  O      -29.021    -845.346      50.376
  C      -27.789    -847.390      50.023
  O      -28.118    -847.948      51.324
  C      -28.815    -847.917      49.003
  O      -28.176    -848.729      48.018
  C      -29.750    -848.803      49.820
  O      -30.131    -850.002      49.144
  C      -28.936    -849.095      51.071
  N      -31.970    -852.619      53.195
  C      -30.952    -852.729      52.303
  N      -30.111    -851.768      51.857
  C      -30.384    -850.590      52.457
  C      -31.372    -850.329      53.398
  C      -32.204    -851.404      53.752
  N      -33.261    -851.281      54.621
  N      -31.332    -848.994      53.767
  C      -30.393    -848.448      53.033
  N      -29.800    -849.371      52.208
  O      -27.808    -843.171      50.840
  O      -30.368    -843.194      51.016
  H      -30.743    -850.479      49.732
  H      -28.065    -842.349      50.391
  H      -30.806    -853.719      51.888
  H      -30.128    -847.412      53.023
  H      -28.269    -849.963      50.936
  H      -30.654    -848.231      50.063
  H      -29.367    -847.103      48.513
  H      -26.785    -847.762      49.763
  H      -27.062    -845.608      50.984
  H      -33.875    -852.068      54.729
  H      -33.501    -850.359      54.969
  H      -27.314    -845.429      49.231
  P      -28.603    -848.475      46.475
  C      -26.330    -848.219      45.238
  O      -27.430    -849.058      45.550
  O      -28.442    -846.885      46.320
  O      -29.989    -848.939      46.161
  H      -29.047    -846.563      45.625
  H      -25.640    -848.752      44.618
  H      -25.841    -847.921      46.142
  H      -26.679    -847.351      44.719

 6  7  8  9  10  11  12  13  14  15  25  28  32  33  34  35 0
 6-311+G(2d,p)
 ****
 36  39  40 0
 6-311+G(2d,p)
 ****
 1  2  3  4  5  16  17  18  19  20  21  22  23  24 0
 3-21G
 ****
 26  27  29  30  31  37  38  41  42  43  44  45  46  47  48 0
 3-21G
 ****


