%nproc=1
%NoSave
%Mem=1900MB
#P OB98/GEN NMR

erre ene a

0 1
  C     -177.547    -347.746      78.414
  O     -178.216    -348.704      77.584
  P     -179.615    -349.368      78.006
  C     -181.198    -347.358      77.747
  O     -180.841    -348.645      77.248
  C     -181.873    -346.468      76.693
  O     -180.890    -345.896      75.784
  C     -182.919    -347.180      75.821
  O     -183.898    -346.187      75.490
  C     -182.105    -347.562      74.591
  O     -182.898    -347.849      73.450
  C     -181.224    -346.317      74.448
  N     -177.627    -344.173      71.487
  C     -178.588    -343.630      72.274
  N     -179.477    -344.262      73.065
  C     -179.301    -345.595      73.022
  C     -178.357    -346.296      72.270
  C     -177.501    -345.519      71.460
  N     -176.559    -346.070      70.620
  N     -178.498    -347.661      72.460
  C     -179.507    -347.786      73.303
  N     -180.019    -346.563      73.676
  O     -179.808    -349.498      79.486
  O     -179.577    -350.827      77.339
  H     -183.511    -347.098      73.311
  H     -179.872    -351.490      77.991
  H     -178.639    -342.542      72.268
  H     -179.920    -348.717      73.652
  H     -181.778    -345.497      73.960
  H     -181.505    -348.455      74.821
  H     -183.385    -348.037      76.305
  H     -182.333    -345.620      77.224
  H     -180.285    -346.859      78.115
  H     -176.053    -345.445      70.014
  H     -176.531    -347.077      70.496
  H     -181.870    -347.485      78.604
  P     -185.468    -346.507      75.537
  C     -185.635    -345.624      77.940
  O     -186.109    -345.492      76.605
  O     -185.814    -347.945      75.741
  O     -186.027    -345.961      74.136
  H     -186.896    -346.378      73.947
  H     -186.089    -346.504      78.408
  H     -185.911    -344.730      78.503
  H     -184.545    -345.728      77.955
  H     -176.638    -347.438      77.941
  H     -177.324    -348.190      79.362
  H     -178.180    -346.896      78.559

 3  4  5  6  7  8  9  10  11  12  22  25  29  30  31  32 0
 6-311+G(2d,p)
 ****
 33  36  37 0
 6-311+G(2d,p)
 ****
 1  2  13  14  15  16  17  18  19  20  21  23  24  26 0
 3-21G
 ****
 27  28  34  35  38  39  40  41  42  43  44  45  46  47  48 0
 3-21G
 ****


