%nproc=1
%NoSave
%Mem=1900MB
#P OB98/GEN NMR

erre ene a

0 1
  C       -0.522    -267.284     140.834
  O        0.880    -267.324     140.657
  H       -0.999    -267.408     139.859
  H       -0.832    -266.324     141.256
  H       -0.846    -268.102     141.483
  P        1.818    -267.048     141.933
  C        1.879    -269.631     142.167
  O        1.681    -268.386     142.820
  C        3.044    -270.381     142.804
  O        2.919    -270.418     144.242
  C        3.166    -271.847     142.393
  O        3.664    -272.027     141.076
  C        4.137    -272.341     143.453
  O        5.467    -271.904     143.131
  C        3.601    -271.615     144.714
  N        2.689    -272.443     145.506
  C        3.205    -273.650     145.997
  O        4.371    -273.972     145.759
  N        2.380    -274.477     146.717
  C        1.142    -274.143     146.914
  N        0.351    -275.023     147.591
  C        0.559    -272.876     146.427
  C        1.375    -272.086     145.738
  O        1.577    -265.768     142.664
  O        3.310    -267.188     141.370
  H        6.052    -272.218     143.847
  H        3.930    -267.016     142.120
  H       -0.482    -272.650     146.614
  H        1.017    -271.145     145.332
  H        4.427    -271.283     145.354
  H        4.165    -273.435     143.537
  H        2.208    -272.369     142.522
  H        3.966    -269.824     142.575
  H        0.774    -275.906     147.873
  H        2.068    -269.434     141.104
  H       -0.659    -274.977     147.543
  H        0.979    -270.250     142.254
  P        3.210    -273.338     140.273
  C        1.496    -271.987     138.844
  O        1.721    -273.063     139.741
  O        3.007    -274.419     141.436
  O        4.158    -273.810     139.209
  H        3.808    -274.956     141.565
  H        0.457    -271.945     138.591
  H        2.074    -272.136     137.956
  H        1.787    -271.068     139.309

 6  7  8  9  10  11  12  13  14  15  16  26  30  31  32  33  35 0
 6-311+G(2d,p)
 ****
 37  38 0
 6-311+G(2d,p)
 ****
 1  2  3  4  5  17  18  19  20  21  22  23  24  25 0
 3-21G
 ****
 27  28  29  34  36  39  40  41  42  43  44  45  46 0
 3-21G
 ****


