%nproc=1
%NoSave
%Mem=1900MB
#P OB98/GEN NMR

erre ene a

0 1
  C      479.177    -554.871      -6.507
  O      479.541    -555.226      -5.172
  P      479.182    -556.696      -4.637
  C      480.520    -558.706      -3.744
  O      480.472    -557.289      -3.896
  C      481.930    -559.166      -3.367
  O      482.867    -558.949      -4.436
  C      482.501    -558.420      -2.167
  O      481.900    -558.854      -0.961
  C      483.986    -558.728      -2.315
  O      484.297    -560.018      -1.756
  C      484.171    -558.764      -3.845
  N      484.822    -557.565      -4.369
  C      486.222    -557.605      -4.420
  O      486.829    -558.588      -4.008
  N      486.884    -556.523      -4.943
  C      486.222    -555.495      -5.354
  N      486.934    -554.446      -5.855
  C      484.743    -555.398      -5.306
  C      484.120    -556.462      -4.799
  O      478.546    -557.605      -5.639
  O      478.189    -556.395      -3.415
  H      485.275    -560.051      -1.681
  H      477.557    -557.144      -3.330
  H      484.231    -554.525      -5.670
  H      483.034    -556.486      -4.713
  H      484.772    -559.630      -4.137
  H      484.611    -557.992      -1.790
  H      482.337    -557.341      -2.298
  H      481.882    -560.246      -3.142
  H      487.942    -554.522      -5.869
  H      480.211    -559.185      -4.676
  H      486.505    -553.622      -6.250
  H      479.789    -559.003      -2.980
  P      481.018    -557.795      -0.148
  C      478.534    -557.710       0.601
  O      479.640    -558.512       0.245
  O      480.575    -556.754      -1.291
  O      481.727    -557.100       0.971
  H      480.512    -555.856      -0.907
  H      477.627    -558.309       0.529
  H      478.438    -556.845      -0.075
  H      478.645    -557.349       1.621
  H      479.485    -553.866      -6.705
  H      478.116    -554.948      -6.620
  H      479.658    -555.534      -7.196

 3  4  5  6  7  8  9  10  11  12  13  23  27  28  29  30  32 0
 6-311+G(2d,p)
 ****
 34  35 0
 6-311+G(2d,p)
 ****
 1  2  14  15  16  17  18  19  20  21  22  24  25  26 0
 3-21G
 ****
 31  33  36  37  38  39  40  41  42  43  44  45  46 0
 3-21G
 ****


