%nproc=1
%NoSave
%Mem=1900MB
#P OB98/GEN NMR

erre ene a

0 1
  C      215.612    -371.164    1016.284
  O      214.743    -371.147    1015.166
  H      215.089    -370.727    1017.140
  H      216.506    -370.566    1016.078
  H      215.896    -372.192    1016.537
  P      215.226    -371.827    1013.798
  C      213.520    -373.729    1013.493
  O      214.840    -373.385    1013.896
  C      213.308    -375.239    1013.600
  O      214.176    -375.907    1012.645
  C      213.605    -375.803    1014.995
  O      212.655    -376.835    1015.268
  C      214.988    -376.412    1014.836
  O      215.220    -377.482    1015.761
  C      214.966    -376.868    1013.380
  N      219.178    -379.662    1013.287
  C      217.964    -379.907    1013.901
  N      217.852    -381.054    1014.607
  N      216.931    -379.095    1013.812
  C      217.174    -377.993    1013.061
  C      218.337    -377.637    1012.406
  C      219.466    -378.535    1012.523
  O      220.574    -378.366    1012.017
  N      218.204    -376.431    1011.763
  C      216.970    -376.054    1012.035
  N      216.310    -376.963    1012.823
  O      216.650    -371.565    1013.420
  O      214.208    -371.262    1012.703
  H      216.024    -377.948    1015.462
  H      214.614    -370.532    1012.199
  H      219.928    -380.316    1013.393
  H      216.501    -375.137    1011.686
  H      214.495    -377.862    1013.251
  H      215.749    -375.641    1014.993
  H      218.595    -381.722    1014.696
  H      213.586    -375.045    1015.781
  H      216.960    -381.254    1015.043
  H      212.272    -375.461    1013.293
  H      213.384    -373.414    1012.447
  H      212.798    -373.198    1014.110
  P      212.053    -376.934    1016.763
  C      209.627    -376.686    1015.937
  O      210.646    -376.160    1016.781
  O      212.996    -376.592    1017.868
  O      211.590    -378.480    1016.840
  H      211.660    -378.765    1017.778
  H      208.742    -376.092    1016.033
  H      209.412    -377.694    1016.223
  H      209.961    -376.667    1014.921

 6  7  8  9  10  11  12  13  14  15  26  29  33  34 0
 6-311+G(2d,p)
 ****
 36  38  39  40  41 0
 6-311+G(2d,p)
 ****
 1  2  3  4  5  16  17  18  19  20  21  22  23  24  25 0
 3-21G
 ****
 27  28  30  31  32  35  37  42  43  44  45  46  47 0
 3-21G
 ****
 48  49 0
 3-21G
 ****


