%nproc=1
%NoSave
%Mem=1900MB
#P OB98/GEN NMR

erre ene a

0 1
  C     -385.242     277.476     276.707
  O     -385.728     276.179     276.347
  P     -386.519     276.027     274.959
  C     -384.430     275.624     273.456
  O     -385.650     275.106     273.971
  C     -384.009     274.849     272.205
  O     -383.643     273.485     272.523
  C     -385.099     274.740     271.153
  O     -385.169     275.908     270.354
  C     -384.592     273.565     270.326
  O     -383.569     274.009     269.417
  C     -383.996     272.647     271.399
  N     -386.288     268.237     270.158
  C     -385.463     269.050     269.464
  N     -384.906     270.217     269.856
  C     -385.266     270.516     271.112
  C     -386.100     269.783     271.944
  C     -386.624     268.593     271.426
  N     -387.464     267.763     272.137
  N     -386.252     270.409     273.163
  C     -385.505     271.495     273.076
  N     -384.895     271.607     271.850
  O     -386.387     277.487     274.310
  O     -387.950     275.628     275.115
  H     -383.360     273.258     268.830
  H     -387.193     277.702     273.804
  H     -385.217     268.719     268.460
  H     -385.370     272.226     273.866
  H     -383.074     272.150     271.056
  H     -385.379     273.108     269.719
  H     -386.065     274.487     271.609
  H     -383.127     275.348     271.775
  H     -383.647     275.571     274.218
  H     -387.777     266.913     271.705
  H     -387.702     268.014     273.089
  H     -384.568     276.690     273.228
  P     -386.604     276.306     269.761
  C     -385.703     278.727     269.462
  O     -386.362     277.618     268.872
  O     -387.391     276.849     271.053
  O     -387.334     275.186     269.094
  H     -388.347     276.674     270.958
  H     -385.352     279.385     268.659
  H     -384.842     278.405     270.052
  H     -386.399     279.280     270.099
  H     -384.740     277.420     277.650
  H     -386.064     278.157     276.780
  H     -384.559     277.821     275.959

 3  4  5  6  7  8  9  10  11  12  22  25  29  30  31  32 0
 6-311+G(2d,p)
 ****
 33  36  37 0
 6-311+G(2d,p)
 ****
 1  2  13  14  15  16  17  18  19  20  21  23  24  26 0
 3-21G
 ****
 27  28  34  35  38  39  40  41  42  43  44  45  46  47  48 0
 3-21G
 ****


