%nproc=1
%NoSave
%Mem=1900MB
#P OB98/GEN NMR

erre ene a

0 1
  C      -92.963      66.576    -325.520
  O      -92.536      67.063    -324.264
  H      -93.110      65.495    -325.447
  H      -92.205      66.778    -326.282
  H      -93.909      67.045    -325.802
  P      -92.153      68.622    -324.192
  C      -91.893      70.250    -322.171
  O      -92.327      68.979    -322.635
  C      -92.910      70.823    -321.189
  O      -94.113      71.230    -321.884
  C      -93.380      69.842    -320.119
  O      -92.441      69.665    -319.069
  C      -94.632      70.555    -319.642
  O      -94.264      71.682    -318.822
  C      -95.236      71.016    -320.985
  N      -96.171      70.041    -321.557
  C      -97.421      69.929    -320.932
  O      -97.699      70.620    -319.955
  N      -98.317      69.002    -321.411
  C      -98.007      68.270    -322.438
  N      -98.935      67.370    -322.864
  C      -96.710      68.363    -323.130
  C      -95.848      69.257    -322.644
  O      -93.416      69.345    -324.861
  O      -90.838      69.003    -324.783
  H      -93.847      71.316    -318.020
  H      -93.351      70.323    -324.736
  H      -96.492      67.720    -323.972
  H      -94.876      69.383    -323.105
  H      -95.757      71.975    -320.876
  H      -95.288      69.925    -319.040
  H      -93.666      68.878    -320.552
  H      -92.472      71.723    -320.742
  H      -99.790      67.289    -322.331
  H      -91.788      70.915    -323.036
  H      -98.733      66.657    -323.550
  H      -90.922      70.158    -321.672
  P      -92.541      68.308    -318.214
  C      -90.940      67.034    -316.603
  O      -91.087      68.041    -317.598
  O      -92.681      67.181    -319.336
  O      -93.669      68.266    -317.231
  H      -93.249      66.448    -319.026
  H      -89.916      66.981    -316.298
  H      -91.242      66.089    -317.004
  H      -91.552      67.275    -315.759

 6  7  8  9  10  11  12  13  14  15  16  26  30  31  32  33  35 0
 6-311+G(2d,p)
 ****
 37  38 0
 6-311+G(2d,p)
 ****
 1  2  3  4  5  17  18  19  20  21  22  23  24  25 0
 3-21G
 ****
 27  28  29  34  36  39  40  41  42  43  44  45  46 0
 3-21G
 ****


