%nproc=1
%NoSave
%Mem=1900MB
#P OB98/GEN NMR

erre ene a

0 1
  C     -229.428    -643.293     -71.210
  O     -228.842    -642.726     -70.056
  H     -230.471    -643.535     -70.989
  H     -228.908    -644.215     -71.482
  H     -229.402    -642.588     -72.045
  P     -227.354    -642.139     -70.157
  C     -227.497    -639.831     -71.303
  O     -227.299    -641.230     -71.474
  C     -226.307    -639.067     -71.878
  O     -225.078    -639.548     -71.295
  C     -226.143    -639.223     -73.383
  O     -227.082    -638.433     -74.086
  C     -224.694    -638.797     -73.558
  O     -224.576    -637.365     -73.578
  C     -224.039    -639.385     -72.289
  N     -223.345    -640.649     -72.539
  C     -222.194    -640.882     -71.797
  O     -221.735    -640.075     -70.986
  N     -221.557    -642.069     -72.039
  C     -221.890    -642.974     -73.007
  O     -221.233    -643.984     -73.241
  C     -223.102    -642.664     -73.778
  C     -223.763    -641.536     -73.513
  O     -226.253    -643.139     -70.033
  O     -227.296    -641.057     -68.974
  H     -224.893    -637.077     -74.458
  H     -226.776    -641.419     -68.233
  H     -220.712    -642.250     -71.520
  H     -223.407    -643.362     -74.541
  H     -224.655    -641.289     -74.076
  H     -223.314    -638.674     -71.870
  H     -224.262    -639.165     -74.486
  H     -226.237    -640.276     -73.663
  H     -226.418    -638.006     -71.604
  H     -227.587    -639.618     -70.234
  H     -228.427    -639.541     -71.804
  P     -227.418    -638.769     -75.614
  C     -229.487    -640.181     -75.053
  O     -228.197    -640.171     -75.650
  O     -226.268    -638.655     -76.561
  O     -228.562    -637.712     -75.989
  H     -228.255    -637.148     -76.720
  H     -229.910    -641.160     -75.134
  H     -230.118    -639.477     -75.555
  H     -229.404    -639.913     -74.020

 6  7  8  9  10  11  12  13  14  15  16  26  31  32  33  34  35 0
 6-311+G(2d,p)
 ****
 36  37 0
 6-311+G(2d,p)
 ****
 1  2  3  4  5  17  18  19  20  21  22  23  24  25 0
 3-21G
 ****
 27  28  29  30  38  39  40  41  42  43  44  45 0
 3-21G
 ****


