%nproc=1
%NoSave
%Mem=1900MB
#P OB98/GEN NMR

erre ene a

0 1
  C     -132.164     -32.980    -477.745
  O     -132.012     -33.878    -476.644
  P     -133.097     -33.753    -475.464
  C     -133.039     -33.123    -472.946
  O     -132.373     -33.055    -474.206
  C     -132.136     -32.603    -471.814
  O     -131.001     -33.494    -471.597
  C     -131.571     -31.200    -472.063
  O     -131.491     -30.539    -470.793
  C     -130.161     -31.494    -472.557
  O     -129.315     -30.346    -472.451
  C     -129.806     -32.665    -471.652
  N     -124.775     -32.703    -472.106
  C     -125.614     -31.703    -471.670
  N     -125.033     -30.562    -471.233
  N     -126.924     -31.817    -471.646
  C     -127.363     -33.027    -472.062
  C     -126.624     -34.110    -472.511
  C     -125.184     -33.956    -472.563
  O     -124.389     -34.807    -472.939
  N     -127.432     -35.170    -472.833
  C     -128.655     -34.721    -472.636
  N     -128.669     -33.432    -472.124
  O     -133.301     -35.269    -474.992
  O     -134.378     -33.117    -475.901
  H     -128.416     -30.613    -472.733
  H     -134.124     -35.630    -475.381
  H     -123.780     -32.562    -472.110
  H     -129.564     -35.260    -472.825
  H     -129.564     -32.352    -470.635
  H     -130.189     -31.791    -473.611
  H     -124.035     -30.433    -471.178
  H     -132.155     -30.592    -472.774
  H     -125.623     -29.824    -470.868
  H     -132.728     -32.600    -470.884
  H     -133.313     -34.158    -472.739
  H     -133.973     -32.548    -473.009
  P     -132.179     -29.096    -470.650
  C     -131.515     -26.643    -471.127
  O     -131.169     -28.016    -471.232
  O     -132.144     -28.833    -469.063
  O     -133.592     -29.026    -471.163
  H     -132.970     -28.397    -468.786
  H     -130.591     -26.045    -471.115
  H     -132.077     -26.442    -470.216
  H     -132.102     -26.349    -471.994
  H     -131.389     -33.158    -478.460
  H     -132.100     -31.971    -477.394
  H     -133.117     -33.138    -478.205

 3  4  5  6  7  8  9  10  11  12  23  26  30  31 0
 6-311+G(2d,p)
 ****
 33  35  36  37  38 0
 6-311+G(2d,p)
 ****
 1  2  13  14  15  16  17  18  19  20  21  22  24  25 0
 3-21G
 ****
 27  28  29  32  34  39  40  41  42  43  44  45  46  47  48  49 0
 3-21G
 ****


