%nproc=1
%NoSave
%Mem=1900MB
#P OB98/GEN NMR

erre ene a

0 1
  C      -79.031      28.698    -189.438
  O      -80.378      28.633    -189.014
  H      -78.731      29.738    -189.594
  H      -78.398      28.259    -188.663
  H      -78.902      28.130    -190.364
  P      -81.460      29.327    -189.974
  C      -82.836      30.060    -187.904
  O      -82.836      29.375    -189.148
  C      -84.252      30.490    -187.542
  O      -84.742      31.452    -188.498
  C      -85.280      29.365    -187.541
  O      -85.209      28.581    -186.358
  C      -86.572      30.165    -187.606
  O      -86.910      30.649    -186.293
  C      -86.189      31.341    -188.518
  N      -90.161      31.664    -191.756
  C      -90.061      31.894    -190.427
  N      -88.978      31.777    -189.631
  C      -87.905      31.392    -190.339
  C      -87.854      31.121    -191.697
  C      -89.052      31.263    -192.417
  N      -89.148      31.011    -193.768
  N      -86.578      30.765    -192.076
  C      -85.867      30.818    -190.969
  N      -86.627      31.187    -189.890
  O      -81.740      28.211    -191.091
  O      -81.035      30.619    -190.588
  H      -86.183      31.240    -186.018
  H      -81.891      28.653    -191.947
  H      -90.974      32.219    -189.936
  H      -84.807      30.607    -190.902
  H      -86.586      32.289    -188.137
  H      -87.422      29.581    -187.967
  H      -85.191      28.746    -188.440
  H      -84.215      30.982    -186.561
  H      -82.199      30.948    -187.977
  H      -89.969      31.317    -194.260
  H      -88.307      30.718    -194.257
  H      -82.431      29.395    -187.135
  P      -84.471      27.157    -186.457
  C      -86.052      25.134    -186.087
  O      -85.293      26.178    -185.488
  O      -83.105      27.402    -185.660
  O      -84.225      26.665    -187.842
  H      -82.421      26.780    -185.975
  H      -86.543      24.567    -185.324
  H      -85.400      24.494    -186.644
  H      -86.784      25.556    -186.744

 6  7  8  9  10  11  12  13  14  15  25  28  32  33  34  35 0
 6-311+G(2d,p)
 ****
 36  39  40 0
 6-311+G(2d,p)
 ****
 1  2  3  4  5  16  17  18  19  20  21  22  23  24 0
 3-21G
 ****
 26  27  29  30  31  37  38  41  42  43  44  45  46  47  48 0
 3-21G
 ****


