%nproc=1
%NoSave
%Mem=1900MB
#P OB98/GEN NMR

erre ene a

0 1
  C      427.659    -375.376    -762.744
  O      427.636    -376.729    -763.091
  P      428.992    -377.553    -763.335
  C      428.122    -378.108    -765.710
  O      428.669    -378.623    -764.489
  C      428.671    -378.896    -766.915
  O      430.071    -378.681    -767.068
  C      428.460    -380.402    -766.809
  O      427.118    -380.756    -767.069
  C      429.472    -380.910    -767.843
  O      428.930    -380.842    -769.168
  C      430.630    -379.869    -767.676
  N      431.730    -380.409    -766.902
  C      432.711    -381.125    -767.620
  O      432.571    -381.297    -768.845
  N      433.796    -381.666    -766.950
  C      433.858    -381.524    -765.671
  N      434.942    -382.076    -765.039
  C      432.860    -380.799    -764.845
  C      431.831    -380.285    -765.536
  O      429.635    -378.117    -762.102
  O      429.932    -376.491    -764.114
  H      429.691    -381.002    -769.769
  H      430.268    -375.796    -763.479
  H      432.960    -380.713    -763.783
  H      431.030    -379.718    -765.009
  H      431.014    -379.570    -768.670
  H      429.784    -381.937    -767.632
  H      428.755    -380.732    -765.797
  H      428.149    -378.505    -767.815
  H      435.588    -382.593    -765.630
  H      428.452    -377.069    -765.790
  H      435.087    -382.057    -764.034
  H      427.041    -378.135    -765.657
  P      426.388    -381.847    -766.156
  C      425.671    -383.228    -768.216
  O      425.232    -382.532    -767.037
  O      425.936    -381.368    -764.809
  O      427.480    -383.029    -766.006
  H      427.501    -383.319    -765.093
  H      424.865    -383.894    -768.544
  H      426.576    -383.793    -768.030
  H      425.852    -382.479    -769.024
  H      426.656    -375.020    -762.629
  H      428.149    -374.818    -763.515
  H      428.189    -375.253    -761.823

 3  4  5  6  7  8  9  10  11  12  13  23  27  28  29  30  32 0
 6-311+G(2d,p)
 ****
 34  35 0
 6-311+G(2d,p)
 ****
 1  2  14  15  16  17  18  19  20  21  22  24  25  26 0
 3-21G
 ****
 31  33  36  37  38  39  40  41  42  43  44  45  46 0
 3-21G
 ****


