%nproc=1
%NoSave
%Mem=1900MB
#P OB98/GEN NMR

erre ene a

0 1
  C      464.115    -788.208      51.705
  O      463.740    -787.393      50.616
  H      464.668    -787.590      52.425
  H      464.761    -789.026      51.377
  H      463.230    -788.611      52.208
  P      462.967    -788.078      49.383
  C      465.030    -788.824      48.027
  O      463.927    -789.232      48.818
  C      465.606    -790.015      47.251
  O      464.641    -790.377      46.229
  C      466.946    -789.695      46.565
  O      467.985    -790.617      46.883
  C      466.556    -789.543      45.102
  O      467.596    -789.805      44.184
  C      465.330    -790.466      44.970
  N      464.438    -790.110      43.871
  C      464.790    -790.537      42.598
  O      465.779    -791.216      42.322
  N      463.939    -790.168      41.581
  C      462.802    -789.426      41.728
  O      462.079    -789.139      40.783
  C      462.495    -788.988      43.101
  C      463.319    -789.336      44.096
  O      462.448    -787.134      48.347
  O      461.779    -788.901      50.072
  H      467.243    -789.677      43.287
  H      460.945    -788.407      49.974
  H      464.182    -790.485      40.665
  H      461.611    -788.385      43.246
  H      463.116    -789.029      45.114
  H      465.658    -791.492      44.819
  H      466.238    -788.501      44.929
  H      467.341    -788.726      46.926
  H      465.700    -790.870      47.944
  H      465.792    -788.402      48.691
  H      464.711    -788.042      47.324
  P      469.147    -790.342      47.942
  C      470.595    -788.990      46.218
  O      469.936    -789.034      47.471
  O      469.975    -791.526      48.316
  O      468.350    -789.859      49.258
  H      468.875    -790.171      50.033
  H      471.060    -788.034      46.093
  H      469.883    -789.146      45.435
  H      471.340    -789.757      46.180

 6  7  8  9  10  11  12  13  14  15  16  26  31  32  33  34  35 0
 6-311+G(2d,p)
 ****
 36  37 0
 6-311+G(2d,p)
 ****
 1  2  3  4  5  17  18  19  20  21  22  23  24  25 0
 3-21G
 ****
 27  28  29  30  38  39  40  41  42  43  44  45 0
 3-21G
 ****


