%nproc=1
%NoSave
%Mem=1900MB
#P OB98/GEN NMR

erre ene a

0 1
  C      -83.199      42.677      32.968
  O      -84.430      41.949      32.859
  P      -85.860      42.567      33.244
  C      -86.943      43.559      35.378
  O      -85.922      42.724      34.842
  C      -87.318      43.118      36.794
  O      -87.921      41.801      36.768
  C      -86.151      42.971      37.760
  O      -85.636      44.222      38.180
  C      -86.789      42.147      38.877
  O      -87.496      42.983      39.805
  C      -87.785      41.261      38.103
  N      -87.390      39.863      38.065
  C      -87.648      39.107      39.213
  O      -88.109      39.642      40.221
  N      -87.360      37.765      39.191
  C      -86.769      37.248      38.159
  N      -86.525      35.909      38.188
  C      -86.358      38.039      36.984
  C      -86.699      39.326      37.003
  O      -87.019      41.819      32.670
  O      -85.826      44.077      32.711
  H      -86.735      44.378      32.525
  H      -88.168      42.421      40.237
  H      -85.830      37.577      36.163
  H      -86.447      39.978      36.172
  H      -88.784      41.341      38.549
  H      -86.046      41.585      39.451
  H      -85.357      42.381      37.282
  H      -88.053      43.830      37.190
  H      -86.830      35.394      39.005
  H      -87.828      43.478      34.736
  H      -86.092      35.406      37.428
  H      -86.601      44.599      35.368
  P      -84.332      44.763      37.417
  C      -81.767      44.449      37.668
  O      -83.060      44.005      38.031
  O      -84.178      46.264      37.956
  O      -84.426      44.727      35.929
  H      -83.892      46.845      37.227
  H      -81.073      44.206      38.478
  H      -81.744      45.528      37.493
  H      -81.449      43.928      36.762
  H      -82.387      42.054      32.654
  H      -83.049      42.973      33.985
  H      -83.243      43.546      32.346

 3  4  5  6  7  8  9  10  11  12  13  24  27  28  29  30  32 0
 6-311+G(2d,p)
 ****
 34  35 0
 6-311+G(2d,p)
 ****
 1  2  14  15  16  17  18  19  20  21  22  23  25  26 0
 3-21G
 ****
 31  33  36  37  38  39  40  41  42  43  44  45  46 0
 3-21G
 ****


