%nproc=1
%NoSave
%Mem=1900MB
#P OB98/GEN NMR

erre ene a

0 1
  C      460.532    -128.717     626.282
  O      459.362    -127.939     626.426
  H      460.732    -129.236     627.223
  H      461.383    -128.071     626.049
  H      460.407    -129.462     625.490
  P      458.749    -127.279     625.099
  C      460.739    -125.606     625.171
  O      459.955    -126.491     624.383
  C      461.444    -124.594     624.270
  O      462.451    -125.300     623.480
  C      460.511    -123.876     623.284
  O      460.965    -122.531     623.129
  C      460.738    -124.630     621.986
  O      460.417    -123.882     620.818
  C      462.230    -124.957     622.096
  N      462.638    -126.055     621.219
  C      462.819    -125.754     619.872
  O      462.741    -124.628     619.382
  N      463.098    -126.828     619.060
  C      463.186    -128.133     619.457
  O      463.423    -129.051     618.685
  C      462.982    -128.384     620.893
  C      462.717    -127.347     621.693
  O      457.829    -126.105     625.678
  O      458.000    -128.206     624.205
  H      456.925    -126.430     625.844
  H      460.593    -124.459     620.044
  H      463.231    -126.632     618.083
  H      463.030    -129.404     621.239
  H      462.537    -127.497     622.755
  H      462.834    -124.066     621.879
  H      460.141    -125.552     621.975
  H      459.456    -123.884     623.583
  H      461.979    -123.871     624.898
  H      461.496    -126.177     625.724
  H      460.094    -125.088     625.888
  P      460.122    -121.378     623.859
  C      458.316    -120.943     622.009
  O      458.631    -121.502     623.276
  O      460.717    -120.067     623.162
  O      460.246    -121.418     625.347
  H      460.945    -120.205     622.227
  H      457.285    -121.121     621.787
  H      458.927    -121.397     621.257
  H      458.499    -119.889     622.029

 6  7  8  9  10  11  12  13  14  15  16  27  31  32  33  34  35 0
 6-311+G(2d,p)
 ****
 36  37 0
 6-311+G(2d,p)
 ****
 1  2  3  4  5  17  18  19  20  21  22  23  24  25 0
 3-21G
 ****
 26  28  29  30  38  39  40  41  42  43  44  45 0
 3-21G
 ****


