%nproc=1
%NoSave
%Mem=1900MB
#P OB98/GEN NMR

erre ene a

0 1
  C      177.641    -148.698      19.515
  O      178.976    -148.553      19.009
  P      179.237    -147.430      17.894
  C      181.335    -146.638      16.575
  O      180.675    -147.704      17.243
  C      182.631    -147.135      15.927
  O      183.604    -147.539      16.915
  C      182.433    -148.349      15.021
  O      181.991    -147.966      13.723
  C      183.849    -148.893      14.946
  O      184.619    -148.131      13.995
  C      184.367    -148.647      16.370
  N      186.102    -153.297      17.351
  C      186.497    -152.382      16.393
  N      187.507    -152.759      15.582
  N      185.950    -151.206      16.243
  C      184.960    -150.953      17.136
  C      184.479    -151.780      18.128
  C      185.081    -153.086      18.273
  O      184.765    -153.943      19.093
  N      183.464    -151.182      18.828
  C      183.347    -149.986      18.277
  N      184.222    -149.808      17.232
  O      179.491    -146.112      18.769
  O      178.112    -147.247      16.929
  H      184.550    -147.194      14.265
  H      179.235    -145.321      18.258
  H      186.553    -154.191      17.417
  H      182.646    -149.225      18.592
  H      185.424    -148.358      16.389
  H      183.878    -149.935      14.614
  H      188.009    -153.631      15.675
  H      181.766    -149.085      15.483
  H      187.838    -152.090      14.897
  H      183.055    -146.314      15.337
  H      181.560    -145.833      17.279
  H      180.657    -146.206      15.838
  P      180.553    -148.484      13.238
  C      178.987    -147.143      11.660
  O      180.256    -147.734      11.856
  O      179.557    -147.791      14.282
  O      180.398    -149.969      13.224
  H      178.779    -148.358      14.427
  H      179.019    -146.543      10.746
  H      178.727    -146.492      12.497
  H      178.226    -147.922      11.544
  H      177.620    -149.479      20.246
  H      176.979    -148.944      18.711
  H      177.329    -147.779      19.966

 3  4  5  6  7  8  9  10  11  12  23  26  30  31 0
 6-311+G(2d,p)
 ****
 33  35  36  37  38 0
 6-311+G(2d,p)
 ****
 1  2  13  14  15  16  17  18  19  20  21  22  24  25 0
 3-21G
 ****
 27  28  29  32  34  39  40  41  42  43  44  45  46  47  48  49 0
 3-21G
 ****


