%nproc=1
%NoSave
%Mem=1900MB
#P OB98/GEN NMR

erre ene a

0 1
  C     -253.704     140.871     288.824
  O     -252.445     141.239     289.366
  P     -252.243     141.095     290.952
  C     -251.370     138.612     290.894
  O     -252.386     139.529     291.269
  C     -250.764     137.960     292.139
  O     -249.756     138.826     292.705
  C     -251.755     137.701     293.265
  O     -252.562     136.560     293.009
  C     -250.815     137.557     294.459
  O     -250.243     136.240     294.489
  C     -249.729     138.602     294.133
  N     -249.895     139.855     294.868
  C     -250.473     139.753     296.130
  O     -250.829     138.687     296.625
  N     -250.643     140.937     296.804
  C     -250.357     142.182     296.323
  O     -250.572     143.212     296.954
  C     -249.782     142.227     294.972
  C     -249.581     141.081     294.317
  O     -253.607     141.744     291.483
  O     -250.996     141.747     291.446
  H     -254.325     141.657     290.831
  H     -250.949     135.640     294.800
  H     -251.035     140.886     297.732
  H     -249.552     143.199     294.553
  H     -249.166     141.095     293.317
  H     -248.736     138.201     294.358
  H     -251.322     137.716     295.417
  H     -252.397     138.579     293.408
  H     -250.274     137.026     291.834
  H     -250.590     139.148     290.345
  H     -251.803     137.851     290.236
  P     -254.020     136.547     293.680
  C     -254.933     137.527     291.435
  O     -254.908     137.584     292.846
  O     -253.733     137.297     295.066
  O     -254.600     135.176     293.829
  H     -253.149     138.067     294.962
  H     -255.830     138.043     291.078
  H     -254.954     136.493     291.078
  H     -254.053     138.035     291.035
  H     -253.693     141.018     287.764
  H     -254.471     141.476     289.260
  H     -253.897     139.841     289.039

 3  4  5  6  7  8  9  10  11  12  13  24  28  29  30  31  32 0
 6-311+G(2d,p)
 ****
 33  34 0
 6-311+G(2d,p)
 ****
 1  2  14  15  16  17  18  19  20  21  22  23  25  26  27 0
 3-21G
 ****
 35  36  37  38  39  40  41  42  43  44  45 0
 3-21G
 ****


