%nproc=1
%NoSave
%Mem=1900MB
#P OB98/GEN NMR

erre ene a

0 1
  C      -94.352     585.711     370.372
  O      -95.455     585.250     369.582
  P      -96.202     583.920     370.089
  C      -94.398     582.143     369.466
  O      -95.070     582.865     370.508
  C      -93.167     581.432     370.018
  O      -93.525     580.262     370.796
  C      -92.209     580.910     368.942
  O      -91.382     581.933     368.409
  C      -91.405     579.898     369.725
  O      -90.341     580.561     370.446
  C      -92.445     579.340     370.720
  N      -91.556     574.343     370.537
  C      -90.765     575.364     371.050
  N      -89.588     574.999     371.581
  N      -91.101     576.618     371.009
  C      -92.318     576.826     370.447
  C      -93.194     575.908     369.921
  C      -92.804     574.516     369.952
  O      -93.444     573.574     369.490
  N      -94.337     576.502     369.462
  C      -94.172     577.771     369.714
  N      -92.960     578.031     370.329
  O      -96.801     583.305     368.740
  O      -97.261     584.174     371.111
  H      -89.925     579.885     371.015
  H      -97.598     582.770     368.943
  H      -91.249     573.370     370.602
  H      -94.890     578.555     369.511
  H      -92.017     579.235     371.731
  H      -90.916     579.139     369.094
  H      -89.295     574.034     371.735
  H      -92.776     580.384     368.141
  H      -89.011     575.733     372.004
  H      -92.619     582.118     370.663
  H      -94.094     582.839     368.667
  H      -95.102     581.439     369.005
  P      -91.917     582.727     367.120
  C      -90.609     581.038     365.600
  O      -91.862     581.645     365.919
  O      -90.700     583.699     366.801
  O      -93.187     583.444     367.310
  H      -91.030     584.510     366.319
  H      -90.065     580.761     366.488
  H      -90.031     581.741     364.969
  H      -90.824     580.146     365.000
  H      -93.944     586.597     369.932
  H      -93.599     584.952     370.410
  H      -94.690     585.928     371.364

 3  4  5  6  7  8  9  10  11  12  23  26  30  31  33  0
 6-311+G(2d,p)
 ****
 35  36  37  38 0
 6-311+G(2d,p)
 ****
 1  2  13  14  15  16  17  18  19  20  21  22  24  25  27  28  29 0
 3-21G
 ****
 32  34  39  40  41  42  43  44  45  46  47  48  49 0
 3-21G
 ****


