%nproc=1
%NoSave
%Mem=1900MB
#P OB98/GEN NMR

erre ene a

0 1
  C      604.063    -229.569     460.869
  O      603.913    -228.745     462.006
  H      603.302    -230.354     460.904
  H      605.049    -230.038     460.876
  H      603.931    -228.989     459.952
  P      604.770    -227.391     462.051
  C      603.254    -225.867     463.513
  O      603.716    -226.188     462.208
  C      601.761    -226.178     463.630
  O      601.576    -227.615     463.471
  C      601.146    -225.781     464.977
  O      599.808    -225.327     464.743
  C      601.098    -227.096     465.732
  O      600.129    -227.130     466.771
  C      600.796    -228.075     464.593
  N      601.129    -229.455     464.935
  C      600.072    -230.339     465.121
  O      598.888    -230.067     464.939
  N      600.424    -231.599     465.540
  C      601.687    -232.035     465.803
  O      601.936    -233.169     466.195
  C      602.760    -231.054     465.597
  C      602.435    -229.827     465.178
  O      605.282    -227.239     460.542
  O      605.888    -227.370     463.039
  H      606.137    -227.690     460.426
  H      599.269    -226.875     466.382
  H      599.669    -232.252     465.682
  H      603.776    -231.362     465.804
  H      603.202    -229.074     465.035
  H      599.740    -228.010     464.307
  H      602.078    -227.307     466.178
  H      601.708    -225.017     465.519
  H      601.234    -225.695     462.799
  H      603.409    -224.799     463.699
  H      603.823    -226.442     464.249
  P      599.625    -223.823     464.210
  C      598.699    -224.041     461.769
  O      599.827    -223.903     462.622
  O      600.966    -223.138     464.748
  O      598.358    -223.188     464.677
  H      601.730    -223.741     464.736
  H      599.024    -224.077     460.750
  H      598.045    -223.205     461.905
  H      598.178    -224.944     462.009

 6  7  8  9  10  11  12  13  14  15  16  27  31  32  33  34  35 0
 6-311+G(2d,p)
 ****
 36  37 0
 6-311+G(2d,p)
 ****
 1  2  3  4  5  17  18  19  20  21  22  23  24  25 0
 3-21G
 ****
 26  28  29  30  38  39  40  41  42  43  44  45 0
 3-21G
 ****


