%nproc=1
%NoSave
%Mem=1900MB
#P OB98/GEN NMR

erre ene a

0 1
  C      -21.961     105.206      11.726
  O      -23.025     104.407      11.216
  P      -24.258     105.167      10.528
  C      -23.335     104.772       8.104
  O      -24.396     104.617       9.028
  C      -23.787     104.406       6.678
  O      -23.636     102.973       6.503
  C      -25.249     104.701       6.362
  O      -25.416     104.719       4.942
  C      -25.941     103.482       6.934
  O      -27.254     103.326       6.405
  C      -24.944     102.349       6.601
  N      -24.917     101.269       7.610
  C      -25.280      99.983       7.216
  O      -25.626      99.689       6.073
  N      -25.275      99.028       8.195
  C      -24.910      99.215       9.494
  O      -25.007      98.344      10.350
  C      -24.402     100.552       9.824
  C      -24.438     101.504       8.889
  O      -23.724     106.663      10.351
  O      -25.518     105.108      11.323
  H      -27.753     104.139       6.649
  H      -24.141     107.249      11.009
  H      -25.601      98.107       7.938
  H      -24.038     100.722      10.831
  H      -24.084     102.505       9.123
  H      -25.182     101.885       5.635
  H      -26.037     103.589       8.018
  H      -25.630     105.629       6.795
  H      -23.127     104.897       5.954
  H      -22.486     104.152       8.404
  H      -22.984     105.810       8.118
  P      -25.591     106.143       4.224
  C      -23.527     107.675       4.220
  O      -24.148     106.539       3.648
  O      -26.280     107.198       5.021
  O      -26.408     105.774       2.894
  H      -26.828     106.575       2.533
  H      -22.442     107.549       4.162
  H      -23.816     107.806       5.266
  H      -23.813     108.564       3.651
  H      -21.212     104.572      12.154
  H      -22.340     105.867      12.477
  H      -21.532     105.778      10.930

 3  4  5  6  7  8  9  10  11  12  13  23  28  29  30  31  32 0
 6-311+G(2d,p)
 ****
 33  34 0
 6-311+G(2d,p)
 ****
 1  2  14  15  16  17  18  19  20  21  22  24  25  26  27 0
 3-21G
 ****
 35  36  37  38  39  40  41  42  43  44  45 0
 3-21G
 ****


