%nproc=1
%NoSave
%Mem=1900MB
#P OB98/GEN NMR

erre ene a

0 1
  C      230.681    -338.427     212.573
  O      231.420    -337.363     213.154
  H      229.617    -338.179     212.624
  H      230.854    -339.350     213.138
  H      230.970    -338.560     211.530
  P      233.018    -337.508     213.149
  C      233.433    -334.945     212.935
  O      233.593    -336.120     213.720
  C      234.109    -333.763     213.618
  O      233.300    -333.335     214.743
  C      235.488    -334.075     214.201
  O      236.495    -334.074     213.210
  C      235.632    -332.954     215.219
  O      236.111    -331.745     214.612
  C      234.199    -332.764     215.724
  N      233.853    -331.880     220.734
  C      234.018    -331.044     219.676
  N      234.078    -331.370     218.366
  C      233.946    -332.692     218.198
  C      233.782    -333.661     219.172
  C      233.737    -333.210     220.503
  N      233.616    -334.060     221.583
  N      233.732    -334.922     218.603
  C      233.855    -334.717     217.306
  N      233.977    -333.389     217.013
  O      233.377    -337.454     211.592
  O      233.550    -338.737     213.809
  H      236.264    -331.106     215.344
  H      233.449    -338.362     211.239
  H      234.117    -329.994     219.924
  H      233.858    -335.494     216.549
  H      233.931    -331.698     215.825
  H      236.351    -333.227     216.001
  H      235.459    -335.035     214.727
  H      234.166    -332.932     212.903
  H      232.364    -334.737     212.815
  H      233.876    -335.121     211.940
  H      233.608    -333.668     222.509
  H      233.630    -335.068     221.423
  P      237.526    -335.301     213.160
  C      237.766    -335.726     210.602
  O      238.347    -335.195     211.788
  O      236.576    -336.573     212.935
  O      238.372    -335.447     214.376
  H      236.424    -337.040     213.780
  H      238.435    -335.577     209.780
  H      236.840    -335.227     210.404
  H      237.586    -336.773     210.731

 6  7  8  9  10  11  12  13  14  15  25  28  32  33  34  35 0
 6-311+G(2d,p)
 ****
 36  37  40 0
 6-311+G(2d,p)
 ****
 1  2  3  4  5  16  17  18  19  20  21  22  23  24 0
 3-21G
 ****
 26  27  29  30  31  38  39 41  42  43  44  45  46  47  48 0
 3-21G
 ****


