%nproc=1
%NoSave
%Mem=1900MB
#P OB98/GEN NMR

erre ene a

0 1
  C     -125.386     105.274     -22.296
  O     -125.191     106.629     -22.635
  H     -126.458     105.086     -22.198
  H     -124.905     105.055     -21.339
  H     -124.983     104.620     -23.074
  P     -123.697     107.096     -22.985
  C     -124.423     107.979     -25.316
  O     -123.580     107.099     -24.587
  C     -125.566     107.202     -25.969
  O     -126.325     106.528     -24.932
  C     -126.534     108.082     -26.763
  O     -126.939     107.373     -27.937
  C     -127.722     108.241     -25.832
  O     -128.935     108.521     -26.531
  C     -127.707     106.904     -25.080
  N     -128.383     107.007     -23.791
  C     -129.696     106.534     -23.730
  O     -130.233     106.065     -24.735
  N     -130.391     106.652     -22.554
  C     -129.852     107.270     -21.550
  N     -130.601     107.383     -20.420
  C     -128.494     107.847     -21.590
  C     -127.821     107.674     -22.727
  O     -122.805     105.840     -22.557
  O     -123.251     108.360     -22.330
  H     -129.250     107.689     -26.946
  H     -121.924     106.120     -22.247
  H     -128.097     108.376     -20.736
  H     -126.820     108.069     -22.852
  H     -128.201     106.122     -25.674
  H     -127.536     109.069     -25.138
  H     -126.103     109.045     -27.050
  H     -125.135     106.421     -26.607
  H     -131.535     106.990     -20.438
  H     -123.835     108.469     -26.098
  H     -130.302     107.882     -19.596
  H     -124.819     108.745     -24.641
  P     -125.960     107.455     -29.203
  C     -125.607     104.979     -29.902
  O     -125.076     106.119     -29.239
  O     -124.914     108.592     -28.788
  O     -126.659     107.788     -30.480
  H     -125.074     109.400     -29.311
  H     -124.906     104.173     -29.841
  H     -125.789     105.217     -30.929
  H     -126.525     104.690     -29.434

 6  7  8  9  10  11  12  13  14  15  16  26  30  31  32  33  35 0
 6-311+G(2d,p)
 ****
 37  38 0
 6-311+G(2d,p)
 ****
 1  2  3  4  5  17  18  19  20  21  22  23  24  25 0
 3-21G
 ****
 27  28  29  34  36  39  40  41  42  43  44  45  46 0
 3-21G
 ****


