%nproc=1
%NoSave
%Mem=1900MB
#P OB98/GEN NMR

erre ene a

0 1
  C     -282.519    -406.116    -893.080
  O     -283.115    -405.858    -891.820
  H     -282.266    -405.182    -893.580
  H     -281.598    -406.690    -892.920
  H     -283.195    -406.708    -893.710
  P     -284.487    -405.028    -891.830
  C     -285.120    -402.585    -892.430
  O     -284.090    -403.508    -892.160
  C     -284.614    -401.164    -892.200
  O     -283.486    -400.878    -893.090
  C     -285.641    -400.069    -892.490
  O     -286.538    -399.884    -891.410
  C     -284.727    -398.857    -892.680
  O     -284.288    -398.399    -891.380
  C     -283.550    -399.476    -893.440
  N     -281.367    -397.698    -897.730
  C     -281.003    -397.626    -896.430
  N     -281.618    -398.126    -895.340
  C     -282.779    -398.736    -895.700
  C     -283.285    -398.897    -897.010
  C     -282.518    -398.339    -898.040
  N     -282.899    -398.400    -899.350
  N     -284.482    -399.556    -896.960
  C     -284.677    -399.845    -895.680
  N     -283.687    -399.365    -894.880
  O     -284.896    -404.960    -890.280
  O     -285.575    -405.591    -892.690
  H     -283.879    -397.521    -891.510
  H     -285.847    -404.774    -890.200
  H     -280.057    -397.111    -896.220
  H     -285.539    -400.395    -895.300
  H     -282.589    -399.012    -893.160
  H     -285.206    -398.030    -893.170
  H     -286.173    -400.263    -893.450
  H     -284.251    -401.077    -891.160
  H     -285.960    -402.768    -891.760
  H     -282.390    -397.802    -900.000
  H     -283.829    -398.751    -899.580
  H     -285.464    -402.700    -893.470
  P     -287.934    -399.164    -891.750
  C     -288.626    -396.748    -892.490
  O     -287.557    -397.705    -892.290
  O     -288.562    -398.873    -890.300
  O     -288.872    -399.959    -892.610
  H     -289.533    -398.835    -890.320
  H     -288.218    -395.827    -892.851
  H     -289.129    -396.576    -891.561
  H     -289.321    -397.134    -893.206

 6  7  8  9  10  11  12  13  14  15  25  28  32  33  34  35 0
 6-311+G(2d,p)
 ****
 36  39  40 0
 6-311+G(2d,p)
 ****
 1  2  3  4  5  16  17  18  19  20  21  22  23  24 0
 3-21G
 ****
 26  27  29  30  31  37  38  41  42  43  44  45  46  47 0
 3-21G
 ****
 48 0
 3-21G
 ****


