%nproc=1
%NoSave
%Mem=1900MB
#P OB98/GEN NMR

erre ene a

0 1
  C        8.981     -25.183     -11.626
  O        9.259     -25.407     -10.263
  H        9.850     -25.493     -12.213
  H        8.804     -24.121     -11.812
  H        8.116     -25.769     -11.946
  P        8.165     -24.999      -9.161
  C        6.704     -27.064      -8.728
  O        7.870     -26.351      -8.337
  C        6.770     -28.521      -8.268
  O        5.446     -29.115      -8.346
  C        7.718     -29.391      -9.107
  O        8.548     -30.171      -8.245
  C        6.776     -30.307      -9.873
  O        7.391     -31.526     -10.279
  C        5.626     -30.443      -8.870
  N        4.416     -30.965      -9.490
  C        4.359     -32.351      -9.659
  O        5.294     -33.061      -9.286
  N        3.273     -32.896     -10.293
  C        2.347     -32.120     -10.762
  N        1.312     -32.722     -11.406
  C        2.381     -30.649     -10.631
  C        3.432     -30.143      -9.987
  O        6.957     -24.314      -9.705
  O        8.966     -24.109      -8.099
  H        7.811     -31.940      -9.493
  H        8.325     -23.544      -7.608
  H        1.586     -30.046     -11.045
  H        3.545     -29.074      -9.843
  H        5.906     -31.102      -8.038
  H        6.424     -29.790     -10.775
  H        8.349     -28.812      -9.781
  H        7.051     -28.537      -7.207
  H        1.332     -33.732     -11.479
  H        6.610     -27.011      -9.818
  H        0.548     -32.221     -11.833
  H        5.835     -26.584      -8.267
  P       10.014     -29.586      -7.953
  C       10.198     -28.506      -5.602
  O       10.284     -29.693      -6.376
  O        9.843     -28.016      -8.213
  O       11.073     -30.175      -8.824
  H       10.320     -27.761      -9.025
  H       10.401     -28.733      -4.576
  H        9.214     -28.095      -5.688
  H       10.914     -27.795      -5.958

 6  7  8  9  10  11  12  13  14  15  16  26  30  31  32  33  35 0
 6-311+G(2d,p)
 ****
 37  38 0
 6-311+G(2d,p)
 ****
 1  2  3  4  5  17  18  19  20  21  22  23  24  25 0
 3-21G
 ****
 27  28  29  34  36  39  40  41  42  43  44  45  46 0
 3-21G
 ****


