%nproc=1
%NoSave
%Mem=1900MB
#P OB98/GEN NMR

erre ene a

0 1
  C      285.166    -236.490    -291.155
  O      283.958    -236.398    -291.900
  P      283.571    -234.964    -292.509
  C      283.541    -235.806    -294.965
  O      282.792    -235.273    -293.879
  C      282.900    -237.088    -295.479
  O      283.155    -238.163    -294.555
  C      281.388    -237.028    -295.625
  O      280.996    -236.390    -296.833
  C      281.033    -238.507    -295.650
  O      281.242    -239.034    -296.973
  C      282.060    -239.107    -294.670
  N      279.704    -242.457    -291.694
  C      280.109    -242.575    -293.007
  N      279.878    -243.763    -293.606
  N      280.688    -241.612    -293.676
  C      280.891    -240.494    -292.938
  C      280.531    -240.259    -291.628
  C      279.846    -241.316    -290.916
  O      279.404    -241.249    -289.773
  N      280.921    -239.007    -291.223
  C      281.544    -238.502    -292.269
  N      281.526    -239.356    -293.345
  O      284.981    -234.392    -293.012
  O      282.898    -234.031    -291.561
  H      280.583    -238.605    -297.557
  H      284.955    -233.415    -293.031
  H      279.279    -243.237    -291.220
  H      282.018    -237.531    -292.289
  H      282.479    -240.040    -295.056
  H      279.990    -238.703    -295.388
  H      279.560    -244.578    -293.107
  H      280.925    -236.554    -294.751
  H      280.203    -243.877    -294.558
  H      283.371    -237.347    -296.437
  H      284.557    -236.024    -294.627
  H      283.589    -235.054    -295.762
  P      279.473    -235.880    -296.918
  C      280.176    -233.518    -296.097
  O      279.573    -234.293    -297.111
  O      278.945    -236.053    -295.416
  O      278.634    -236.619    -297.900
  H      277.978    -236.174    -295.412
  H      281.018    -234.045    -295.638
  H      279.433    -233.277    -295.330
  H      280.545    -232.587    -296.539
  H      285.298    -237.495    -290.812
  H      285.118    -235.829    -290.315
  H      285.991    -236.215    -291.778

 3  4  5  6  7  8  9  10  11  12  23  26  30  31  33  0
 6-311+G(2d,p)
 ****
 35  36  37  38 0
 6-311+G(2d,p)
 ****
 1  2  13  14  15  16  17  18  19  20  21  22  24  25  27  28  29 0
 3-21G
 ****
 32  34  39  40  41  42  43  44  45  46  47  48  49 0
 3-21G
 ****


