%nproc=1
%NoSave
%Mem=1900MB
#P OB98/GEN NMR

erre ene a

0 1
  C      159.542    -939.911     521.032
  O      158.489    -940.770     521.483
  P      157.064    -940.093     521.807
  C      156.002    -941.044     519.629
  O      156.288    -939.898     520.422
  C      155.363    -940.630     518.298
  O      156.173    -939.662     517.576
  C      155.198    -941.787     517.332
  O      154.096    -942.613     517.709
  C      154.973    -941.036     516.018
  O      153.603    -940.553     515.934
  C      155.924    -939.835     516.170
  N      158.320    -939.602     511.639
  C      157.026    -939.332     512.004
  N      156.483    -939.438     513.228
  C      157.381    -939.822     514.133
  C      158.712    -940.141     513.909
  C      159.175    -940.008     512.601
  N      160.481    -940.299     512.212
  N      159.338    -940.523     515.098
  C      158.399    -940.472     516.005
  N      157.206    -940.054     515.486
  O      157.468    -938.602     522.242
  O      156.292    -940.798     522.891
  H      153.511    -940.132     515.044
  H      157.336    -938.481     523.196
  H      156.376    -938.985     511.199
  H      158.521    -940.740     517.049
  H      155.496    -938.912     515.791
  H      155.158    -941.665     515.145
  H      156.099    -942.386     517.268
  H      154.386    -940.173     518.528
  H      155.332    -941.717     520.169
  H      160.711    -940.252     511.219
  H      161.115    -940.696     512.904
  H      156.944    -941.591     519.454
  P      154.404    -943.905     518.624
  C      152.844    -942.833     520.385
  O      154.141    -943.381     520.136
  O      156.014    -943.960     518.569
  O      153.695    -945.139     518.227
  H      156.422    -943.076     518.690
  H      152.792    -942.562     521.444
  H      152.089    -943.589     520.200
  H      152.683    -941.933     519.768
  H      160.424    -940.490     520.856
  H      159.744    -939.172     521.779
  H      159.245    -939.429     520.124

 3  4  5  6  7  8  9  10  11  12  22  25  29  30  31  32 0
 6-311+G(2d,p)
 ****
 33  36  37 0
 6-311+G(2d,p)
 ****
 1  2  13  14  15  16  17  18  19  20  21  23  24  26 0
 3-21G
 ****
 27  28  34  35  38  39  40  41  42  43  44  45  46  47  48 0
 3-21G
 ****


