%nproc=1
%NoSave
%Mem=1900MB
#P OB98/GEN NMR

erre ene a

0 1
  C     -225.233       9.267     102.991
  O     -225.509       8.578     101.791
  H     -224.816       8.562     103.714
  H     -226.156       9.683     103.403
  H     -224.508      10.068     102.819
  P     -225.984       9.450     100.531
  C     -225.070       7.900      98.659
  O     -226.214       8.419      99.320
  C     -225.311       6.450      98.238
  O     -225.225       5.602      99.413
  C     -226.677       6.216      97.588
  O     -226.522       5.270      96.527
  C     -227.503       5.598      98.700
  O     -228.578       4.799      98.208
  C     -226.436       4.826      99.487
  N     -226.851       4.598     100.869
  C     -227.772       3.569     101.086
  O     -228.202       2.912     100.137
  N     -228.229       3.347     102.359
  C     -227.865       4.138     103.320
  N     -228.376       3.885     104.555
  C     -226.949       5.279     103.124
  C     -226.479       5.443     101.888
  O     -224.658      10.231     100.098
  O     -227.130      10.370     100.786
  H     -228.202       4.094      97.637
  H     -224.870      11.105      99.719
  H     -226.695       5.926     103.951
  H     -225.806       6.257     101.647
  H     -226.237       3.855      99.015
  H     -227.933       6.392      99.323
  H     -227.130       7.131      97.197
  H     -224.501       6.145      97.565
  H     -229.016       3.105     104.645
  H     -224.217       7.934      99.343
  H     -228.199       4.461     105.364
  H     -224.845       8.518      97.783
  P     -226.928       5.764      95.057
  C     -224.834       4.956      93.749
  O     -226.225       4.793      93.992
  O     -226.134       7.143      94.897
  O     -228.398       5.949      94.872
  H     -226.756       7.892      94.932
  H     -224.513       4.241      93.020
  H     -224.293       4.804      94.659
  H     -224.649       5.945      93.384

 6  7  8  9  10  11  12  13  14  15  16  26  30  31  32  33  35 0
 6-311+G(2d,p)
 ****
 37  38 0
 6-311+G(2d,p)
 ****
 1  2  3  4  5  17  18  19  20  21  22  23  24  25 0
 3-21G
 ****
 27  28  29  34  36  39  40  41  42  43  44  45  46 0
 3-21G
 ****


