%nproc=1
%NoSave
%Mem=1900MB
#P OB98/GEN NMR

erre ene a

0 1
  C      -14.683      86.109    -340.181
  O      -14.896      84.711    -340.073
  P      -14.275      83.871    -338.850
  C      -16.312      82.404    -338.235
  O      -15.042      82.466    -338.883
  C      -17.141      81.249    -338.816
  O      -17.391      81.494    -340.219
  C      -16.454      79.883    -338.755
  O      -16.510      79.355    -337.438
  C      -17.241      79.121    -339.815
  O      -18.505      78.676    -339.275
  C      -17.487      80.211    -340.882
  N      -16.541      80.122    -341.998
  C      -16.754      79.068    -342.894
  O      -17.682      78.274    -342.752
  N      -15.914      78.963    -343.984
  C      -14.928      79.809    -344.140
  N      -14.179      79.694    -345.262
  C      -14.662      80.897    -343.185
  C      -15.489      81.002    -342.152
  O      -14.305      84.571    -337.524
  O      -12.806      83.479    -339.339
  H      -18.345      77.811    -338.863
  H      -12.115      84.158    -339.119
  H      -13.827      81.577    -343.351
  H      -15.367      81.785    -341.424
  H      -18.511      80.142    -341.264
  H      -16.712      78.246    -340.194
  H      -15.405      79.970    -339.060
  H      -18.105      81.221    -338.296
  H      -14.508      79.042    -345.973
  H      -16.843      83.338    -338.407
  H      -13.607      80.454    -345.611
  H      -16.167      82.269    -337.159
  P      -15.169      78.702    -336.842
  C      -16.443      78.255    -334.615
  O      -15.654      77.716    -335.659
  O      -14.466      79.926    -336.079
  O      -14.274      78.080    -337.869
  H      -13.745      80.294    -336.628
  H      -16.878      77.431    -334.045
  H      -17.250      78.868    -335.026
  H      -15.818      78.864    -333.951
  H      -15.175      86.478    -341.057
  H      -13.634      86.305    -340.252
  H      -15.080      86.598    -339.316

 3  4  5  6  7  8  9  10  11  12  13  23  27  28  29  30  32 0
 6-311+G(2d,p)
 ****
 34  35 0
 6-311+G(2d,p)
 ****
 1  2  14  15  16  17  18  19  20  21  22  24  25  26 0
 3-21G
 ****
 31  33  36  37  38  39  40  41  42  43  44  45  46 0
 3-21G
 ****


