%nproc=1
%NoSave
%Mem=1900MB
#P OB98/GEN NMR

erre ene a

0 1
  C       11.394    -196.583    -184.012
  O       10.710    -196.689    -185.276
  P        9.799    -197.980    -185.564
  C        7.456    -197.691    -184.455
  O        8.248    -197.573    -185.627
  C        6.258    -196.726    -184.492
  O        6.726    -195.355    -184.664
  C        5.255    -197.002    -185.620
  O        3.955    -196.635    -185.129
  C        5.696    -196.029    -186.698
  O        4.686    -195.764    -187.664
  C        6.071    -194.820    -185.835
  N        6.930    -193.843    -186.512
  C        6.390    -193.130    -187.575
  O        5.263    -193.305    -188.031
  N        7.219    -192.195    -188.148
  C        8.513    -191.943    -187.796
  O        9.212    -191.116    -188.367
  C        9.039    -192.746    -186.682
  C        8.239    -193.642    -186.105
  O        9.888    -198.768    -184.166
  O       10.267    -198.861    -186.679
  H        5.055    -195.122    -188.297
  H       10.056    -199.715    -184.334
  H        6.842    -191.658    -188.911
  H       10.058    -192.574    -186.367
  H        8.603    -194.238    -185.272
  H        5.163    -194.322    -185.488
  H        6.563    -196.443    -187.228
  H        5.254    -198.043    -185.951
  H        5.761    -196.765    -183.513
  H        8.068    -197.459    -183.578
  H        7.101    -198.722    -184.366
  P        2.890    -197.807    -184.832
  C        2.579    -198.360    -182.291
  O        2.268    -197.524    -183.384
  O        3.891    -199.035    -184.565
  O        1.926    -198.061    -185.941
  H        4.633    -198.800    -183.983
  H        3.640    -198.635    -182.289
  H        1.968    -199.265    -182.332
  H        2.358    -197.826    -181.363
  H       11.952    -195.670    -183.984
  H       12.060    -197.412    -183.896
  H       10.678    -196.588    -183.217

 3  4  5  6  7  8  9  10  11  12  13  23  28  29  30  31  32 0
 6-311+G(2d,p)
 ****
 33  34 0
 6-311+G(2d,p)
 ****
 1  2  14  15  16  17  18  19  20  21  22  24  25  26 0
 3-21G
 ****
 27  35  36  37  38  39  40  41  42  43  44  45 0
 3-21G
 ****


