%nproc=1
%NoSave
%Mem=1900MB
#P OB98/GEN NMR

erre ene a

0 1
  C      -67.833     221.448       6.577
  O      -66.460     221.080       6.587
  P      -65.896     220.222       5.355
  C      -65.676     217.646       5.150
  O      -66.510     218.743       5.494
  C      -66.495     216.374       4.935
  O      -67.348     216.555       3.771
  C      -65.661     215.112       4.694
  O      -66.385     214.010       5.259
  C      -65.664     214.981       3.182
  O      -65.368     213.654       2.753
  C      -67.080     215.458       2.870
  N      -66.658     214.071      -2.036
  C      -66.469     213.384      -0.890
  N      -66.602     213.822       0.380
  C      -66.969     215.115       0.402
  C      -67.162     215.952      -0.685
  C      -66.998     215.380      -1.959
  N      -67.198     216.075      -3.128
  N      -67.503     217.222      -0.265
  C      -67.514     217.152       1.051
  N      -67.222     215.894       1.496
  O      -64.355     220.026       5.741
  O      -66.044     220.857       4.016
  H      -65.475     213.617       1.784
  H      -63.791     220.532       5.124
  H      -66.182     212.343      -1.005
  H      -67.723     217.977       1.719
  H      -67.830     214.676       3.055
  H      -64.913     215.653       2.750
  H      -64.650     215.156       5.112
  H      -67.157     216.239       5.799
  H      -64.970     217.471       5.967
  H      -67.195     215.562      -3.996
  H      -67.634     216.991      -3.084
  H      -65.106     217.887       4.247
  P      -65.622     213.132       6.363
  C      -63.542     211.586       6.307
  O      -64.585     212.201       5.578
  O      -66.751     212.110       6.863
  O      -65.062     213.929       7.496
  H      -66.571     211.839       7.783
  H      -63.319     210.614       5.855
  H      -63.812     211.434       7.358
  H      -62.647     212.215       6.256
  H      -68.057     222.013       7.458
  H      -68.438     220.566       6.555
  H      -68.037     222.042       5.711

 3  4  5  6  7  8  9  10  11  12  22  25  29  30  31  32 0
 6-311+G(2d,p)
 ****
 33  36  37 0
 6-311+G(2d,p)
 ****
 1  2  13  14  15  16  17  18  19  20  21  23  24  26 0
 3-21G
 ****
 27  28  34  35  38  39  40  41  42  43  44  45  46  47  48 0
 3-21G
 ****


