%nproc=1
%NoSave
%Mem=1900MB
#P OB98/GEN NMR

erre ene a

0 1
  C      110.947     356.575    -387.588
  O      111.095     355.546    -388.548
  H      110.778     356.118    -386.610
  H      110.084     357.201    -387.840
  H      111.854     357.188    -387.538
  P      111.536     355.996    -390.026
  C      110.313     357.381    -391.896
  O      110.225     356.652    -390.684
  C      108.921     357.656    -392.466
  O      108.487     356.486    -393.212
  C      107.864     357.942    -391.400
  O      106.946     358.916    -391.918
  C      107.148     356.613    -391.238
  O      105.834     356.765    -390.710
  C      107.212     356.067    -392.676
  N      107.058     354.611    -392.726
  C      105.879     354.087    -392.198
  O      105.023     354.839    -391.715
  N      105.689     352.726    -392.205
  C      106.639     351.954    -392.633
  N      106.413     350.612    -392.584
  C      107.926     352.462    -393.152
  C      108.064     353.785    -393.187
  O      111.669     354.589    -390.771
  O      112.761     356.842    -390.073
  H      105.453     355.873    -390.550
  H      110.935     353.975    -390.582
  H      108.693     351.774    -393.494
  H      108.971     354.246    -393.557
  H      106.427     356.517    -393.293
  H      107.708     355.960    -390.558
  H      108.297     358.306    -390.457
  H      108.990     358.480    -393.184
  H      105.519     350.304    -392.196
  H      110.904     356.824    -392.633
  H      107.093     349.911    -392.836
  H      110.830     358.326    -391.686
  P      107.337     360.467    -391.876
  C      107.575     362.304    -390.068
  O      106.955     361.079    -390.447
  O      106.893     361.274    -393.055
  O      108.949     360.422    -391.810
  H      109.287     361.127    -392.396
  H      107.230     362.593    -389.097
  H      107.324     363.065    -390.777
  H      108.637     362.174    -390.045

 6  7  8  9  10  11  12  13  14  15  16  26  30  31  32  33  35 0
 6-311+G(2d,p)
 ****
 37  38 0
 6-311+G(2d,p)
 ****
 1  2  3  4  5  17  18  19  20  21  22  23  24  25 0
 3-21G
 ****
 27  28  29  34  36  39  40  41  42  43  44  45  46 0
 3-21G
 ****


