%nproc=1
%NoSave
%Mem=1900MB
#P OB98/GEN NMR

erre ene a

0 1
  C     -101.192      77.042      57.262
  O     -100.198      77.282      58.244
  P      -98.876      76.369      58.181
  C      -98.400      73.857      58.713
  O      -99.262      74.973      58.864
  C      -98.065      73.274      60.088
  O      -97.249      74.195      60.838
  C      -99.282      72.982      60.955
  O      -99.860      71.739      60.597
  C      -98.670      72.997      62.352
  O      -98.028      71.742      62.645
  C      -97.640      74.131      62.237
  N      -98.992      76.886      66.253
  C      -98.701      75.538      66.157
  N      -98.732      74.834      67.311
  N      -98.403      74.936      65.036
  C      -98.423      75.763      63.963
  C      -98.710      77.107      63.927
  C      -98.986      77.770      65.181
  O      -99.154      78.977      65.334
  N      -98.653      77.601      62.650
  C      -98.300      76.561      61.921
  N      -98.128      75.426      62.672
  O      -97.904      77.068      59.238
  O      -98.257      76.240      56.825
  H      -97.544      71.818      63.487
  H      -97.262      77.649      58.786
  H      -99.196      77.298      67.146
  H      -98.136      76.583      60.855
  H      -96.732      73.921      62.815
  H      -99.424      73.152      63.130
  H      -98.977      75.225      68.206
  H     -100.018      73.790      60.866
  H      -98.525      73.844      67.258
  H      -97.479      72.360      59.931
  H      -97.477      74.179      58.224
  H      -98.890      73.106      58.083
  P     -101.457      71.677      60.461
  C     -103.426      72.231      62.060
  O     -102.066      71.865      61.930
  O     -101.738      70.138      60.121
  O     -102.025      72.576      59.414
  H     -102.489      70.070      59.502
  H     -103.811      71.820      62.996
  H     -104.029      71.852      61.231
  H     -103.503      73.320      62.091
  H     -102.013      77.711      57.415
  H     -101.536      76.032      57.342
  H     -100.778      77.202      56.289

 3  4  5  6  7  8  9  10  11  12  23  26  30  31 0
 6-311+G(2d,p)
 ****
 33  35  36  37  38 0
 6-311+G(2d,p)
 ****
 1  2  13  14  15  16  17  18  19  20  21  22  24  25 0
 3-21G
 ****
 27  28  29  32  34  39  40  41  42  43  44  45  46  47  48  49 0
 3-21G
 ****


