%nproc=1
%NoSave
%Mem=1900MB
#P OB98/GEN NMR

erre ene a

0 1
  C     -129.957      -5.941    -323.719
  O     -128.860      -6.820    -323.566
  H     -130.405      -5.765    -322.738
  H     -130.710      -6.387    -324.375
  H     -129.622      -4.984    -324.130
  P     -128.076      -7.223    -324.909
  C     -125.625      -7.392    -324.078
  O     -126.598      -6.615    -324.763
  C     -124.369      -6.564    -323.819
  O     -124.691      -5.373    -323.066
  C     -123.285      -7.295    -323.038
  O     -122.502      -8.111    -323.888
  C     -122.498      -6.125    -322.458
  O     -121.581      -5.576    -323.427
  C     -123.611      -5.121    -322.127
  N     -122.695      -3.840    -317.329
  C     -122.007      -3.522    -318.484
  N     -120.878      -2.797    -318.329
  N     -122.385      -3.888    -319.679
  C     -123.514      -4.637    -319.676
  C     -124.294      -5.004    -318.601
  C     -123.879      -4.565    -317.287
  O     -124.475      -4.759    -316.233
  N     -125.372      -5.750    -319.003
  C     -125.225      -5.863    -320.310
  N     -124.104      -5.219    -320.762
  O     -128.747      -6.293    -326.028
  O     -128.147      -8.665    -325.281
  H     -121.217      -4.742    -323.087
  H     -128.721      -6.756    -326.885
  H     -122.362      -3.514    -316.438
  H     -125.899      -6.398    -320.965
  H     -123.287      -4.084    -322.273
  H     -121.896      -6.430    -321.599
  H     -120.375      -2.781    -317.454
  H     -123.723      -7.879    -322.218
  H     -120.357      -2.578    -319.169
  H     -123.985      -6.235    -324.794
  H     -125.363      -8.257    -324.695
  H     -126.047      -7.744    -323.131
  P     -122.220      -9.623    -323.419
  C     -123.032     -10.437    -325.751
  O     -123.138     -10.559    -324.340
  O     -122.933      -9.705    -321.988
  O     -120.777      -9.998    -323.353
  H     -122.601     -10.476    -321.492
  H     -123.704     -11.125    -326.220
  H     -122.029     -10.656    -326.054
  H     -123.282      -9.438    -326.042

 6  7  8  9  10  11  12  13  14  15  26  29  33  34 0
 6-311+G(2d,p)
 ****
 36  38  39  40  41 0
 6-311+G(2d,p)
 ****
 1  2  3  4  5  16  17  18  19  20  21  22  23  24  25 0
 3-21G
 ****
 27  28  30  31  32  35  37  42  43  44  45  46  47 0
 3-21G
 ****
 48  49 0
 3-21G
 ****


