%nproc=1
%NoSave
%Mem=1900MB
#P OB98/GEN NMR

erre ene a

0 1
  C      181.602    -237.414    -619.785
  O      181.350    -238.475    -618.878
  P      180.402    -239.669    -619.389
  C      182.359    -240.805    -620.683
  O      181.059    -240.232    -620.742
  C      182.261    -242.336    -620.751
  O      181.470    -242.827    -619.653
  C      181.596    -242.869    -622.009
  O      182.473    -242.800    -623.124
  C      181.250    -244.281    -621.559
  O      182.415    -245.121    -621.622
  C      180.843    -244.061    -620.089
  N      176.648    -246.294    -618.165
  C      177.942    -246.682    -618.202
  N      178.996    -246.043    -618.750
  C      178.614    -244.877    -619.303
  C      177.330    -244.367    -619.361
  C      176.315    -245.120    -618.758
  N      174.995    -244.725    -618.729
  N      177.321    -243.157    -620.031
  C      178.578    -242.947    -620.360
  N      179.399    -243.947    -619.924
  O      179.100    -238.903    -619.901
  O      180.084    -240.702    -618.352
  H      183.107    -244.699    -621.081
  H      178.294    -239.436    -619.742
  H      178.162    -247.634    -617.730
  H      178.939    -242.078    -620.897
  H      181.187    -244.864    -619.429
  H      180.473    -244.754    -622.174
  H      180.680    -242.305    -622.226
  H      183.279    -242.739    -620.652
  H      182.842    -240.527    -619.741
  H      174.313    -245.391    -618.407
  H      174.726    -243.923    -619.292
  H      182.958    -240.415    -621.507
  P      181.807    -242.812    -624.585
  C      181.034    -240.360    -624.616
  O      180.635    -241.717    -624.479
  O      180.991    -244.188    -624.558
  O      182.772    -242.635    -625.715
  H      180.464    -244.283    -623.751
  H      180.145    -239.724    -624.581
  H      181.543    -240.207    -625.572
  H      181.697    -240.082    -623.793
  H      182.242    -236.693    -619.321
  H      180.677    -236.949    -620.055
  H      182.077    -237.800    -620.663

 3  4  5  6  7  8  9  10  11  12  22  25  29  30  31  32 0
 6-311+G(2d,p)
 ****
 33  36  37 0
 6-311+G(2d,p)
 ****
 1  2  13  14  15  16  17  18  19  20  21  23  24  26 0
 3-21G
 ****
 27  28  34  35  38  39  40  41  42  43  44  45  46  47  48 0
 3-21G
 ****


