%nproc=1
%NoSave
%Mem=1900MB
#P OB98/GEN NMR

erre ene a

0 1
  C     -205.522     621.456     542.120
  O     -204.558     622.426     541.771
  H     -206.204     621.323     541.276
  H     -206.096     621.800     542.985
  H     -205.055     620.496     542.346
  P     -203.256     622.585     542.686
  C     -201.844     620.618     541.790
  O     -202.015     622.030     541.839
  C     -200.362     620.254     541.631
  O     -200.190     618.843     541.926
  C     -199.884     620.468     540.190
  O     -198.492     620.762     540.127
  C     -200.133     619.116     539.545
  O     -199.327     618.887     538.395
  C     -199.835     618.168     540.708
  N     -199.728     613.319     539.144
  C     -198.849     614.345     538.862
  N     -197.799     614.035     538.061
  N     -198.992     615.568     539.305
  C     -200.121     615.743     540.038
  C     -201.079     614.811     540.362
  C     -200.885     613.452     539.896
  O     -201.645     612.512     540.097
  N     -202.087     615.367     541.114
  C     -201.744     616.636     541.235
  N     -200.545     616.907     540.617
  O     -203.444     621.455     543.808
  O     -203.056     623.937     543.301
  H     -199.495     619.617     537.770
  H     -202.917     621.671     544.599
  H     -199.552     612.390     538.800
  H     -202.316     617.386     541.764
  H     -198.762     617.940     540.753
  H     -201.181     619.076     539.224
  H     -197.765     613.173     537.544
  H     -200.433     621.253     539.677
  H     -197.338     614.825     537.598
  H     -199.757     620.807     542.360
  H     -202.421     620.258     540.934
  H     -202.263     620.155     542.685
  P     -198.035     622.260     539.786
  C     -197.608     623.432     542.123
  O     -197.102     622.823     540.956
  O     -199.379     623.107     539.936
  O     -197.414     622.426     538.438
  H     -199.642     623.485     539.071
  H     -196.795     623.725     542.754
  H     -198.232     622.738     542.646
  H     -198.181     624.295     541.855

 6  7  8  9  10  11  12  13  14  15  26  29  33  34 0
 6-311+G(2d,p)
 ****
 36  38  39  40  41 0
 6-311+G(2d,p)
 ****
 1  2  3  4  5  16  17  18  19  20  21  22  23  24  25 0
 3-21G
 ****
 27  28  30  31  32  35  37  42  43  44  45  46  47 0
 3-21G
 ****
 48  49 0
 3-21G
 ****


