%nproc=1
%NoSave
%Mem=1900MB
#P OB98/GEN NMR

erre ene a

0 1
  C     -367.185       7.371    -174.007
  O     -367.649       8.524    -174.680
  H     -367.026       7.603    -172.951
  H     -367.945       6.588    -174.083
  H     -366.256       7.007    -174.453
  P     -366.583       9.693    -174.954
  C     -367.922      10.248    -177.111
  O     -367.311      10.749    -175.929
  C     -369.418      10.566    -177.113
  O     -370.089       9.636    -176.215
  C     -369.760      11.994    -176.655
  O     -370.845      12.479    -177.454
  C     -370.253      11.794    -175.229
  O     -371.137      12.825    -174.801
  C     -370.915      10.422    -175.334
  N     -373.487      10.573    -170.945
  C     -373.742      11.099    -172.163
  N     -373.030      10.965    -173.300
  C     -371.984      10.141    -173.107
  C     -371.593       9.525    -171.929
  C     -372.393       9.783    -170.800
  N     -372.097       9.309    -169.540
  N     -370.432       8.802    -172.123
  C     -370.116       8.997    -173.389
  N     -371.022       9.802    -174.023
  O     -365.521       8.969    -175.911
  O     -365.936      10.276    -173.742
  H     -371.650      13.140    -175.570
  H     -364.843       8.524    -175.370
  H     -374.639      11.717    -172.230
  H     -369.232       8.610    -173.881
  H     -371.925      10.471    -175.759
  H     -369.395      11.767    -174.546
  H     -368.917      12.693    -176.708
  H     -369.811      10.380    -178.121
  H     -367.792       9.159    -177.147
  H     -372.663       9.634    -168.773
  H     -371.233       8.813    -169.394
  H     -367.438      10.694    -177.985
  P     -370.586      13.809    -178.316
  C     -370.878      12.766    -180.688
  O     -371.371      13.674    -179.707
  O     -369.047      13.671    -178.746
  O     -370.842      15.076    -177.567
  H     -368.636      14.554    -178.805
  H     -371.510      12.795    -181.551
  H     -370.870      11.775    -180.285
  H     -369.883      13.046    -180.965

 6  7  8  9  10  11  12  13  14  15  25  28  32  33  34  35 0
 6-311+G(2d,p)
 ****
 36  39  40 0
 6-311+G(2d,p)
 ****
 1  2  3  4  5  16  17  18  19  20  21  22  23  24 0
 3-21G
 ****
 26  27  29  30  31  37  38  41  42  43  44  45  46  47 0
 3-21G
 ****
 48 0
 3-21G
 ****


