%nproc=1
%NoSave
%Mem=1900MB
#P OB98/GEN NMR

erre ene a

0 1
  C      318.538    -258.135     -99.645
  O      317.689    -259.077     -99.017
  P      316.752    -258.619     -97.802
  C      314.905    -257.721     -99.348
  O      315.838    -257.406     -98.321
  C      313.478    -257.626     -98.812
  O      313.205    -256.293     -98.334
  C      312.403    -257.915     -99.855
  O      312.298    -259.304    -100.098
  C      311.180    -257.287     -99.197
  O      310.612    -258.182     -98.225
  C      311.788    -256.059     -98.504
  N      308.301    -252.640     -99.972
  C      308.184    -253.841     -99.367
  N      309.162    -254.713     -99.045
  C      310.361    -254.245     -99.434
  C      310.629    -253.054    -100.091
  C      309.533    -252.215    -100.343
  N      309.643    -250.962    -100.902
  N      311.983    -252.943    -100.350
  C      312.513    -254.048     -99.864
  N      311.583    -254.830     -99.246
  O      317.455    -258.372     -96.508
  O      315.703    -259.818     -97.657
  H      310.003    -257.658     -97.669
  H      315.783    -260.213     -96.768
  H      307.174    -254.139     -99.101
  H      313.562    -254.314     -99.923
  H      311.372    -255.908     -97.501
  H      310.391    -257.048     -99.917
  H      312.628    -257.378    -100.781
  H      313.386    -258.314     -97.961
  H      315.103    -258.738     -99.694
  H      308.817    -250.384    -100.905
  H      310.558    -250.512    -100.902
  H      315.040    -257.029    -100.186
  P      312.059    -259.835    -101.586
  C      313.930    -261.575    -101.365
  O      313.446    -260.461    -102.090
  O      311.420    -258.867    -102.526
  O      311.140    -261.133    -101.382
  H      310.546    -261.234    -102.149
  H      314.386    -261.233    -100.431
  H      314.689    -262.081    -101.965
  H      313.122    -262.277    -101.143
  H      319.085    -258.615    -100.429
  H      319.222    -257.736     -98.925
  H      317.949    -257.342    -100.056

 3  4  5  6  7  8  9  10  11  12  22  25  29  30  31  32 0
 6-311+G(2d,p)
 ****
 33  36  37 0
 6-311+G(2d,p)
 ****
 1  2  13  14  15  16  17  18  19  20  21  23  24  26 0
 3-21G
 ****
 27  28  34  35  38  39  40  41  42  43  44  45  46  47  48 0
 3-21G
 ****


