%nproc=1
%NoSave
%Mem=1900MB
#P OB98/GEN NMR

erre ene a

0 1
  C     -147.518     123.792     -97.337
  O     -147.507     123.599     -95.935
  H     -146.714     124.485     -97.603
  H     -148.467     124.224     -97.664
  H     -147.348     122.842     -97.851
  P     -148.692     122.743     -95.279
  C     -146.957     121.111     -94.270
  O     -148.105     121.264     -95.098
  C     -146.133     119.914     -94.734
  O     -145.498     120.205     -95.997
  C     -145.006     119.554     -93.777
  O     -145.506     118.881     -92.639
  C     -144.112     118.732     -94.684
  O     -144.600     117.392     -94.821
  C     -144.233     119.504     -96.018
  N     -143.125     120.428     -96.238
  C     -141.975     119.880     -96.817
  O     -141.935     118.688     -97.116
  N     -140.893     120.700     -97.019
  C     -140.956     121.952     -96.693
  N     -139.849     122.708     -96.919
  C     -142.154     122.571     -96.094
  C     -143.189     121.758     -95.892
  O     -150.024     122.799     -95.964
  O     -148.766     123.291     -93.777
  H     -145.509     117.474     -95.171
  H     -149.382     124.045     -93.718
  H     -142.164     123.620     -95.843
  H     -144.110     122.133     -95.459
  H     -144.272     118.806     -96.864
  H     -143.095     118.676     -94.299
  H     -144.457     120.455     -93.484
  H     -146.810     119.065     -94.886
  H     -139.045     122.238     -97.323
  H     -147.314     120.951     -93.248
  H     -139.812     123.706     -96.788
  H     -146.346     122.020     -94.285
  P     -145.871     119.694     -91.305
  C     -147.961     118.226     -90.945
  O     -147.462     119.547     -91.139
  O     -145.346     121.089     -91.245
  O     -145.304     118.750     -90.141
  H     -144.318     118.794     -90.090
  H     -149.026     118.258     -90.848
  H     -147.534     117.811     -90.056
  H     -147.697     117.618     -91.785

 6  7  8  9  10  11  12  13  14  15  16  26  30  31  32  33  35 0
 6-311+G(2d,p)
 ****
 37  38 0
 6-311+G(2d,p)
 ****
 1  2  3  4  5  17  18  19  20  21  22  23  24  25 0
 3-21G
 ****
 27  28  29  34  36  39  40  41  42  43  44  45  46 0
 3-21G
 ****


