%nproc=1
%NoSave
%Mem=1900MB
#P OB98/GEN NMR

erre ene a

0 1
  C      -81.682    -774.215    1077.639
  O      -81.494    -774.342    1076.241
  H      -81.010    -773.421    1077.998
  H      -81.422    -775.144    1078.142
  H      -82.719    -773.931    1077.868
  P      -82.480    -775.318    1075.419
  C      -80.941    -775.133    1073.324
  O      -81.582    -776.004    1074.274
  C      -79.688    -775.779    1072.784
  O      -78.639    -775.723    1073.797
  C      -79.819    -777.263    1072.429
  O      -80.512    -777.430    1071.218
  C      -78.361    -777.699    1072.425
  O      -77.742    -777.362    1071.161
  C      -77.761    -776.845    1073.580
  N      -77.586    -777.649    1074.781
  C      -76.589    -778.596    1074.770
  O      -75.846    -778.812    1073.785
  N      -76.479    -779.395    1075.896
  C      -77.344    -779.389    1076.942
  O      -77.355    -780.259    1077.800
  C      -78.333    -778.319    1076.945
  C      -78.449    -777.510    1075.883
  O      -83.749    -774.708    1074.953
  O      -82.728    -776.531    1076.443
  H      -83.620    -776.409    1076.835
  H      -76.823    -777.688    1071.218
  H      -75.779    -780.115    1075.861
  H      -79.005    -778.239    1077.818
  H      -79.194    -776.730    1075.846
  H      -76.793    -776.437    1073.255
  H      -78.254    -778.761    1072.561
  H      -80.342    -777.792    1073.248
  H      -79.340    -775.188    1071.897
  H      -80.716    -774.192    1073.829
  H      -81.658    -774.932    1072.510
  P      -81.259    -778.838    1070.904
  C      -81.907    -778.125    1068.493
  O      -81.206    -779.073    1069.315
  O      -82.615    -779.020    1071.507
  O      -80.228    -779.955    1071.461
  H      -80.729    -780.577    1072.024
  H      -81.794    -778.393    1067.463
  H      -81.504    -777.147    1068.653
  H      -82.946    -778.129    1068.750

 6  7  8  9  10  11  12  13  14  15  16  27  31  32  33  34  35 0
 6-311+G(2d,p)
 ****
 36  37 0
 6-311+G(2d,p)
 ****
 1  2  3  4  5  17  18  19  20  21  22  23  24  25 0
 3-21G
 ****
 26  28  29  30  38  39  40  41  42  43  44  45 0
 3-21G
 ****


