%nproc=1
%NoSave
%Mem=1900MB
#P OB98/GEN NMR

erre ene a

0 1
  C     -197.690     -91.043    -224.922
  O     -198.497     -91.844    -224.082
  H     -197.760     -90.005    -224.587
  H     -198.034     -91.102    -225.958
  H     -196.645     -91.359    -224.859
  P     -198.656     -93.398    -224.435
  C     -197.591     -94.420    -222.311
  O     -197.451     -94.162    -223.701
  C     -196.597     -93.579    -221.497
  O     -196.925     -92.171    -221.666
  C     -196.621     -93.877    -219.989
  O     -195.305     -93.628    -219.484
  C     -197.595     -92.825    -219.494
  O     -197.534     -92.683    -218.098
  C     -197.169     -91.629    -220.349
  N     -198.166     -90.570    -220.369
  C     -197.982     -89.532    -219.454
  O     -197.024     -89.547    -218.682
  N     -198.903     -88.515    -219.417
  C     -199.953     -88.569    -220.178
  N     -200.833     -87.538    -220.082
  C     -200.215     -89.682    -221.117
  C     -199.288     -90.637    -221.163
  O     -198.810     -93.724    -225.883
  O     -199.940     -93.855    -223.595
  H     -198.239     -92.077    -217.773
  H     -200.704     -93.961    -224.191
  H     -201.111     -89.688    -221.713
  H     -199.390     -91.495    -221.819
  H     -196.221     -91.207    -219.986
  H     -198.625     -93.111    -219.733
  H     -196.926     -94.900    -219.761
  H     -195.592     -93.724    -221.914
  H     -200.620     -86.803    -219.420
  H     -197.394     -95.486    -222.154
  H     -201.693     -87.483    -220.610
  H     -198.613     -94.196    -221.987
  P     -194.193     -94.773    -219.340
  C     -192.044     -94.054    -220.571
  O     -193.269     -94.780    -220.647
  O     -194.749     -96.116    -218.980
  O     -193.208     -94.253    -218.189
  H     -192.839     -95.023    -217.714
  H     -191.522     -94.136    -221.502
  H     -191.439     -94.457    -219.786
  H     -192.252     -93.024    -220.368

 6  7  8  9  10  11  12  13  14  15  16  26  30  31  32  33  35 0
 6-311+G(2d,p)
 ****
 37  38 0
 6-311+G(2d,p)
 ****
 1  2  3  4  5  17  18  19  20  21  22  23  24  25 0
 3-21G
 ****
 27  28  29  34  36  39  40  41  42  43  44  45  46 0
 3-21G
 ****


