%nproc=1
%NoSave
%Mem=1900MB
#P OB98/GEN NMR

erre ene a

0 1
  C     -777.187     288.256    -506.548
  O     -777.496     287.038    -505.903
  H     -776.455     288.794    -505.939
  H     -778.080     288.877    -506.650
  H     -776.750     288.074    -507.532
  P     -778.555     286.057    -506.597
  C     -778.926     284.954    -504.277
  O     -779.524     285.607    -505.395
  C     -779.920     284.869    -503.123
  O     -780.228     286.177    -502.596
  C     -781.280     284.273    -503.488
  O     -781.243     282.859    -503.683
  C     -782.075     284.660    -502.255
  O     -781.713     283.802    -501.147
  C     -781.568     286.111    -502.031
  N     -782.443     287.113    -502.638
  C     -783.660     287.351    -501.993
  O     -783.964     286.747    -500.971
  N     -784.523     288.288    -502.539
  C     -784.210     288.884    -503.645
  N     -785.103     289.780    -504.148
  C     -782.941     288.639    -504.377
  C     -782.116     287.752    -503.819
  O     -777.987     284.936    -507.414
  O     -779.519     287.028    -507.432
  H     -781.941     282.893    -501.420
  H     -780.199     286.466    -507.892
  H     -782.733     289.146    -505.311
  H     -781.169     287.514    -504.293
  H     -781.469     286.326    -500.948
  H     -783.145     284.583    -502.396
  H     -781.704     284.781    -504.360
  H     -779.431     284.301    -502.311
  H     -785.958     289.928    -503.636
  H     -778.033     285.524    -503.990
  H     -784.980     290.226    -505.052
  H     -778.621     283.942    -504.549
  P     -781.603     282.331    -505.161
  C     -782.352     280.134    -503.955
  O     -782.619     281.108    -504.954
  O     -780.246     281.652    -505.635
  O     -782.101     283.391    -506.110
  H     -779.746     282.262    -506.221
  H     -783.128     279.398    -503.958
  H     -782.313     280.608    -502.996
  H     -781.413     279.663    -504.158

 6  7  8  9  10  11  12  13  14  15  16  26  30  31  32  33  35 0
 6-311+G(2d,p)
 ****
 37  38 0
 6-311+G(2d,p)
 ****
 1  2  3  4  5  17  18  19  20  21  22  23  24  25 0
 3-21G
 ****
 27  28  29  34  36  39  40  41  42  43  44  45  46 0
 3-21G
 ****


