%nproc=1
%NoSave
%Mem=1900MB
#P OB98/GEN NMR

erre ene a

0 1
  C     -285.610    -439.312     219.245
  O     -284.599    -438.724     220.038
  H     -285.581    -440.396     219.387
  H     -285.430    -439.094     218.190
  H     -286.599    -438.948     219.536
  P     -284.591    -437.133     220.227
  C     -283.893    -436.454     222.616
  O     -283.453    -436.805     221.313
  C     -284.421    -437.682     223.358
  O     -283.320    -438.622     223.554
  C     -285.009    -437.373     224.749
  O     -286.066    -438.312     224.990
  C     -283.814    -437.658     225.641
  O     -284.179    -437.752     226.991
  C     -283.277    -438.920     224.964
  N     -281.933    -439.285     225.391
  C     -281.810    -440.001     226.574
  O     -282.767    -440.366     227.259
  N     -280.529    -440.293     226.964
  C     -279.390    -439.940     226.302
  O     -278.268    -440.246     226.685
  C     -279.582    -439.155     225.074
  C     -280.825    -438.869     224.680
  O     -285.916    -436.504     220.493
  O     -283.947    -436.595     218.863
  H     -284.655    -436.316     218.253
  H     -284.646    -438.599     227.164
  H     -280.422    -440.815     227.821
  H     -278.699    -438.840     224.536
  H     -281.007    -438.290     223.781
  H     -283.951    -439.766     225.134
  H     -283.088    -436.841     225.571
  H     -285.399    -436.355     224.832
  H     -285.160    -438.192     222.723
  H     -284.687    -435.707     222.521
  H     -283.057    -436.017     223.172
  P     -287.620    -437.955     224.811
  C     -288.481    -440.362     224.450
  O     -288.511    -439.208     225.281
  O     -287.968    -437.463     223.444
  O     -287.932    -436.831     225.910
  H     -288.582    -436.200     225.546
  H     -289.110    -441.119     224.869
  H     -287.478    -440.728     224.384
  H     -288.833    -440.107     223.472

 6  7  8  9  10  11  12  13  14  15  16  27  31  32  33  34  35 0
 6-311+G(2d,p)
 ****
 36  37 0
 6-311+G(2d,p)
 ****
 1  2  3  4  5  17  18  19  20  21  22  23  24  25 0
 3-21G
 ****
 26  28  29  30  38  39  40  41  42  43  44  45 0
 3-21G
 ****


