%nproc=1
%NoSave
%Mem=1900MB
#P OB98/GEN NMR

erre ene a

0 1
  C      268.336     519.670     616.427
  O      267.095     519.491     617.081
  H      268.709     518.695     616.090
  H      269.070     520.097     617.117
  H      268.216     520.318     615.553
  P      266.338     520.774     617.668
  C      267.693     520.588     619.889
  O      266.407     520.571     619.268
  C      267.557     520.904     621.366
  O      266.888     522.164     621.588
  C      266.743     519.889     622.170
  O      267.424     518.664     622.388
  C      266.538     520.670     623.451
  O      267.740     520.669     624.222
  C      266.225     522.081     622.894
  N      264.791     522.355     622.759
  C      264.340     522.732     621.493
  O      265.124     522.801     620.553
  N      263.006     523.046     621.330
  C      262.193     522.992     622.358
  N      260.896     523.308     622.128
  C      262.641     522.618     623.703
  C      263.941     522.329     623.844
  O      264.978     521.051     617.116
  O      267.377     521.979     617.462
  H      268.056     519.745     624.264
  H      266.953     522.805     617.800
  H      261.937     522.632     624.531
  H      264.327     522.052     624.829
  H      266.663     522.867     623.529
  H      265.739     520.273     624.087
  H      265.764     519.721     621.688
  H      268.578     521.006     621.790
  H      260.613     523.554     621.187
  H      268.302     521.346     619.369
  H      260.201     523.368     622.873
  H      268.171     519.611     619.769
  P      266.683     517.315     621.872
  C      264.864     517.500     623.740
  O      265.888     516.735     623.137
  O      267.903     516.296     621.659
  O      265.854     517.499     620.633
  H      268.159     516.255     620.704
  H      264.450     516.956     624.563
  H      264.097     517.698     623.021
  H      265.270     518.425     624.092

 6  7  8  9  10  11  12  13  14  15  16  26  30  31  32  33  35 0
 6-311+G(2d,p)
 ****
 37  38 0
 6-311+G(2d,p)
 ****
 1  2  3  4  5  17  18  19  20  21  22  23  24  25 0
 3-21G
 ****
 27  28  29  34  36  39  40  41  42  43  44  45  46 0
 3-21G
 ****


