%nproc=1
%NoSave
%Mem=1900MB
#P OB98/GEN NMR

erre ene a

0 1
  C      211.038    -230.171    -840.514
  O      210.896    -228.813    -840.891
  H      211.976    -230.554    -840.925
  H      210.217    -230.775    -840.910
  H      211.068    -230.260    -839.423
  P      209.519    -228.070    -840.538
  C      209.367    -227.561    -843.072
  O      209.259    -227.047    -841.749
  C      209.587    -226.416    -844.061
  O      208.539    -225.432    -843.929
  C      210.891    -225.664    -843.830
  O      211.993    -226.411    -844.300
  C      210.609    -224.369    -844.558
  O      210.796    -224.519    -845.967
  C      209.113    -224.143    -844.221
  N      208.932    -223.221    -843.103
  C      207.970    -222.212    -843.290
  O      207.343    -222.137    -844.344
  N      207.781    -221.301    -842.273
  C      208.454    -221.406    -841.169
  N      208.212    -220.474    -840.209
  C      209.462    -222.460    -840.929
  C      209.646    -223.320    -841.930
  O      209.411    -227.454    -839.176
  O      208.409    -229.202    -840.772
  H      210.347    -223.749    -846.382
  H      208.256    -229.704    -839.953
  H      209.999    -222.506    -839.994
  H      210.361    -224.129    -841.833
  H      208.582    -223.740    -845.086
  H      211.265    -223.566    -844.220
  H      211.011    -225.430    -842.759
  H      209.543    -226.827    -845.073
  H      207.528    -219.764    -840.421
  H      208.427    -228.077    -843.295
  H      208.616    -220.497    -839.286
  H      210.181    -228.281    -843.146
  P      213.219    -226.768    -843.330
  C      214.452    -227.184    -845.565
  O      214.243    -227.630    -844.227
  O      212.848    -227.376    -842.017
  O      213.986    -225.362    -843.185
  H      213.487    -224.740    -842.593
  H      215.147    -227.834    -846.053
  H      214.844    -226.188    -845.552
  H      213.522    -227.195    -846.094

 6  7  8  9  10  11  12  13  14  15  16  26  30  31  32  33  35 0
 6-311+G(2d,p)
 ****
 37  38 0
 6-311+G(2d,p)
 ****
 1  2  3  4  5  17  18  19  20  21  22  23  24  25 0
 3-21G
 ****
 27  28  29  34  36  39  40  41  42  43  44  45  46 0
 3-21G
 ****


