%nproc=1
%NoSave
%Mem=1900MB
#P OB98/GEN NMR

erre ene a

0 1
  C      -93.048    -150.143    -899.030
  O      -91.697    -149.715    -899.340
  P      -90.487    -150.551    -898.720
  C      -90.086    -148.786    -896.840
  O      -89.527    -149.533    -897.930
  C      -89.125    -148.795    -895.640
  O      -88.956    -150.114    -895.090
  C      -87.727    -148.296    -895.950
  O      -87.678    -146.872    -895.950
  C      -86.921    -148.841    -894.800
  O      -87.109    -148.034    -893.640
  C      -87.586    -150.224    -894.600
  N      -84.151    -154.018    -894.110
  C      -84.590    -153.058    -893.250
  N      -85.488    -152.061    -893.450
  C      -85.964    -152.139    -894.710
  C      -85.627    -153.046    -895.710
  C      -84.678    -154.022    -895.350
  N      -84.265    -154.993    -896.260
  N      -86.352    -152.813    -896.860
  C      -87.099    -151.755    -896.550
  N      -86.901    -151.339    -895.280
  O      -89.604    -150.940    -900.000
  O      -90.924    -151.778    -897.960
  H      -88.056    -148.027    -893.440
  H      -89.191    -151.823    -899.860
  H      -84.130    -153.102    -892.250
  H      -87.813    -151.285    -897.250
  H      -87.658    -150.480    -893.530
  H      -85.849    -148.883    -895.020
  H      -87.363    -148.706    -896.920
  H      -89.571    -148.171    -894.840
  H      -91.035    -149.201    -896.560
  H      -83.572    -155.672    -895.940
  H      -84.657    -155.006    -897.190
  H      -90.282    -147.752    -897.180
  P      -88.152    -146.104    -897.280
  C      -85.749    -146.392    -898.300
  O      -86.812    -145.494    -897.950
  O      -88.916    -144.800    -896.700
  O      -89.009    -146.915    -898.210
  H      -89.627    -144.540    -897.330
  H      -85.100    -145.858    -899.000
  H      -86.166    -147.263    -898.820
  H      -85.197    -146.683    -897.410
  H      -93.748    -149.492    -899.512
  H      -93.199    -150.108    -897.971
  H      -93.194    -151.144    -899.378

 3  4  5  6  7  8  9  10  11  12  22  25  29  30  31  32 0
 6-311+G(2d,p)
 ****
 33  36  37 0
 6-311+G(2d,p)
 ****
 1  2  13  14  15  16  17  18  19  20  21  23  24  26 0
 3-21G
 ****
 27  28  34  35  38  39  40  41  42  43  44  45  46  47  48 0
 3-21G
 ****


