%nproc=1
%NoSave
%Mem=1900MB
#P OB98/GEN NMR

erre ene a

0 1
  C     -784.302    1318.588     595.125
  O     -785.223    1317.933     594.265
  H     -784.522    1319.662     595.110
  H     -783.284    1318.432     594.763
  H     -784.410    1318.218     596.146
  P     -785.190    1316.331     594.266
  C     -785.269    1316.134     591.644
  O     -785.894    1315.880     592.893
  C     -786.317    1316.357     590.554
  O     -787.110    1315.147     590.412
  C     -787.284    1317.508     590.856
  O     -787.617    1318.162     589.625
  C     -788.521    1316.802     591.395
  O     -789.695    1317.589     591.253
  C     -788.495    1315.495     590.575
  N     -789.253    1314.423     591.215
  C     -790.650    1314.536     591.191
  O     -791.188    1315.504     590.663
  N     -791.396    1313.561     591.801
  C     -790.817    1312.601     592.446
  N     -791.617    1311.680     593.042
  C     -789.342    1312.466     592.535
  C     -788.637    1313.399     591.898
  O     -786.282    1315.985     595.387
  O     -783.844    1315.737     594.515
  H     -789.839    1317.769     590.302
  H     -787.097    1316.508     595.312
  H     -788.905    1311.653     593.088
  H     -787.552    1313.370     591.902
  H     -788.925    1315.659     589.582
  H     -788.391    1316.579     592.463
  H     -786.875    1318.239     591.559
  H     -785.802    1316.510     589.604
  H     -792.620    1311.826     592.981
  H     -784.628    1315.291     591.367
  H     -791.271    1310.928     593.624
  H     -784.643    1317.017     591.759
  P     -786.495    1319.009     588.862
  C     -786.162    1321.246     590.130
  O     -786.807    1320.573     589.051
  O     -786.198    1318.586     587.451
  O     -785.198    1318.805     589.776
  H     -784.433    1318.676     589.187
  H     -786.458    1322.274     590.137
  H     -785.101    1321.182     590.007
  H     -786.443    1320.787     591.055

 6  7  8  9  10  11  12  13  14  15  16  26  30  31  32  33  35 0
 6-311+G(2d,p)
 ****
 37  38 0
 6-311+G(2d,p)
 ****
 1  2  3  4  5  17  18  19  20  21  22  23  24  25 0
 3-21G
 ****
 27  28  29  34  36  39  40  41  42  43  44  45  46 0
 3-21G
 ****


