%nproc=1
%NoSave
%Mem=1900MB
#P OB98/GEN NMR

erre ene a

0 1
  C      123.399    -396.575    -112.534
  O      124.302    -397.304    -113.341
  H      123.914    -396.180    -111.654
  H      123.005    -395.736    -113.114
  H      122.568    -397.214    -112.225
  P      124.993    -398.592    -112.677
  C      126.448    -398.918    -110.546
  O      125.984    -398.022    -111.550
  C      127.412    -398.190    -109.618
  O      128.616    -397.825    -110.331
  C      126.866    -396.888    -109.038
  O      126.016    -397.110    -107.927
  C      128.158    -396.207    -108.621
  O      128.638    -396.785    -107.396
  C      129.091    -396.565    -109.783
  N      131.842    -392.847    -111.974
  C      132.089    -393.648    -110.915
  N      131.303    -394.610    -110.392
  C      130.152    -394.710    -111.078
  C      129.757    -393.956    -112.172
  C      130.667    -392.988    -112.629
  N      130.412    -392.156    -113.700
  N      128.490    -394.321    -112.585
  C      128.145    -395.301    -111.774
  N      129.111    -395.568    -110.839
  O      125.995    -399.109    -113.813
  O      124.060    -399.657    -112.207
  H      129.544    -396.442    -107.260
  H      126.221    -400.047    -113.658
  H      133.046    -393.493    -110.423
  H      127.212    -395.848    -111.822
  H      130.127    -396.719    -109.460
  H      128.038    -395.136    -108.444
  H      126.371    -396.280    -109.808
  H      127.699    -398.882    -108.813
  H      126.966    -399.753    -111.025
  H      131.041    -391.380    -113.829
  H      129.482    -392.154    -114.094
  H      125.591    -399.302    -109.984
  P      124.746    -396.142    -107.763
  C      124.469    -393.592    -107.321
  O      125.333    -394.727    -107.290
  O      124.027    -396.707    -106.453
  O      123.834    -396.105    -108.945
  H      123.070    -396.506    -106.470
  H      125.001    -392.729    -106.979
  H      123.627    -393.767    -106.684
  H      124.131    -393.428    -108.323

 6  7  8  9  10  11  12  13  14  15  25  28  32  33  34  35 0
 6-311+G(2d,p)
 ****
 36  39  40 0
 6-311+G(2d,p)
 ****
 1  2  3  4  5  16  17  18  19  20  21  22  23  24 0
 3-21G
 ****
 26  27  29  30  31  37  38  41  42  43  44  45  46  47 0
 3-21G
 ****
 48 0
 3-21G
 ****


