%nproc=1
%NoSave
%Mem=1900MB
#P OB98/GEN NMR

erre ene a

0 1
  C      430.869    -236.075     -60.424
  O      431.012    -237.156     -61.326
  P      432.461    -237.610     -61.839
  C      432.393    -237.395     -64.408
  O      432.727    -236.758     -63.179
  C      430.877    -237.401     -64.629
  O      430.340    -236.072     -64.484
  C      430.450    -237.881     -66.012
  O      430.535    -239.297     -66.104
  C      429.033    -237.327     -66.094
  O      428.093    -238.184     -65.428
  C      429.173    -235.979     -65.340
  N      429.250    -234.842     -66.246
  C      428.067    -234.507     -66.922
  O      427.051    -235.183     -66.750
  N      428.080    -233.449     -67.791
  C      429.190    -232.799     -68.002
  N      429.151    -231.768     -68.892
  C      430.462    -233.133     -67.337
  C      430.421    -234.159     -66.482
  O      432.665    -239.080     -61.964
  O      433.449    -236.915     -60.780
  H      428.115    -239.033     -65.910
  H      433.437    -237.387     -59.910
  H      431.361    -232.571     -67.548
  H      431.320    -234.479     -65.952
  H      428.313    -235.824     -64.669
  H      428.693    -237.209     -67.126
  H      431.076    -237.403     -66.781
  H      430.419    -238.044     -63.855
  H      428.260    -231.585     -69.347
  H      432.759    -238.425     -64.376
  H      429.954    -231.226     -69.150
  H      432.900    -236.876     -65.236
  P      430.506    -240.002     -67.542
  C      428.241    -241.101     -68.076
  O      429.004    -239.901     -68.105
  O      431.125    -241.364     -67.595
  O      431.305    -238.978     -68.480
  H      431.923    -239.488     -69.047
  H      427.179    -240.840     -68.153
  H      428.407    -241.642     -67.141
  H      428.523    -241.727     -68.925
  H      429.832    -235.929     -60.204
  H      431.268    -235.186     -60.866
  H      431.398    -236.292     -59.520

 3  4  5  6  7  8  9  10  11  12  13  23  27  28  29  30  32 0
 6-311+G(2d,p)
 ****
 34  35 0
 6-311+G(2d,p)
 ****
 1  2  14  15  16  17  18  19  20  21  22  24  25  26 0
 3-21G
 ****
 31  33  36  37  38  39  40  41  42  43  44  45  46 0
 3-21G
 ****


