%nproc=1
%NoSave
%Mem=1900MB
#P OB98/GEN NMR

erre ene a

0 1
  C     -183.645     324.199     103.859
  O     -183.546     325.580     103.559
  H     -184.648     323.993     104.240
  H     -182.911     323.927     104.623
  H     -183.484     323.606     102.952
  P     -182.150     326.083     102.956
  C     -181.937     327.726     104.946
  O     -181.985     327.572     103.534
  C     -181.771     329.198     105.317
  O     -180.383     329.577     105.259
  C     -182.505     330.168     104.399
  O     -183.878     330.254     104.744
  C     -181.767     331.461     104.700
  O     -182.255     332.027     105.932
  C     -180.313     330.980     104.886
  N     -178.023     334.251     101.656
  C     -178.942     334.444     102.624
  N     -179.540     333.524     103.416
  C     -179.092     332.287     103.129
  C     -178.156     331.938     102.164
  C     -177.598     332.987     101.415
  N     -176.650     332.791     100.431
  N     -177.952     330.573     102.154
  C     -178.711     330.116     103.127
  N     -179.453     331.109     103.723
  O     -181.984     325.921     101.482
  O     -181.113     325.254     103.849
  H     -183.167     332.340     105.771
  H     -181.427     325.196     104.770
  H     -179.239     335.479     102.791
  H     -178.756     329.081     103.452
  H     -179.810     331.514     105.702
  H     -181.910     332.213     103.924
  H     -182.358     329.908     103.344
  H     -182.098     329.324     106.359
  H     -181.119     327.140     105.372
  H     -176.432     333.571      99.830
  H     -176.430     331.838     100.169
  H     -182.883     327.341     105.348
  P     -185.012     330.155     103.618
  C     -185.873     332.576     103.787
  O     -186.156     331.207     104.033
  O     -185.506     328.781     103.333
  O     -184.354     330.833     102.322
  H     -184.620     330.355     101.515
  H     -186.702     333.174     104.102
  H     -185.705     332.723     102.741
  H     -184.998     332.863     104.333

 6  7  8  9  10  11  12  13  14  15  25  28  32  33  34  35 0
 6-311+G(2d,p)
 ****
 36  39  40 0
 6-311+G(2d,p)
 ****
 1  2  3  4  5  16  17  18  19  20  21  22  23  24 0
 3-21G
 ****
 26  27  29  30  31  37  38  41  42  43  44  45  46  47 0
 3-21G
 ****
 48 0
 3-21G
 ****


