%nproc=1
%NoSave
%Mem=1900MB
#P OB98/GEN NMR

erre ene a

0 1
  C        3.314     137.370    -284.642
  O        4.344     136.722    -285.394
  P        5.855     136.995    -284.925
  C        7.575     138.937    -285.083
  O        6.266     138.476    -285.394
  C        7.905     140.180    -285.922
  O        8.183     139.832    -287.298
  C        6.766     141.190    -285.986
  O        6.653     141.910    -284.769
  C        7.191     142.028    -287.187
  O        8.206     142.974    -286.807
  C        7.803     140.967    -288.118
  N        5.589     142.206    -292.569
  C        6.463     142.871    -291.774
  N        7.005     142.470    -290.605
  C        6.568     141.241    -290.273
  C        5.684     140.444    -290.980
  C        5.179     140.974    -292.183
  N        4.278     140.299    -292.982
  N        5.473     139.249    -290.323
  C        6.196     139.331    -289.225
  N        6.886     140.518    -289.152
  O        6.716     136.043    -285.888
  O        6.102     136.692    -283.483
  H        9.055     142.489    -286.753
  H        7.075     135.291    -285.376
  H        6.766     143.851    -292.129
  H        6.256     138.570    -288.457
  H        8.709     141.327    -288.621
  H        6.365     142.590    -287.635
  H        5.817     140.675    -286.204
  H        8.798     140.657    -285.491
  H        8.311     138.155    -285.277
  H        3.908     140.781    -293.788
  H        3.898     139.418    -292.666
  H        7.627     139.161    -284.013
  P        5.582     141.394    -283.689
  C        3.081     140.817    -283.825
  O        4.214     141.291    -284.532
  O        5.355     142.708    -282.811
  O        5.976     140.166    -282.943
  H        5.237     143.504    -283.366
  H        2.219     140.832    -284.504
  H        2.870     141.464    -282.968
  H        3.251     139.792    -283.490
  H        2.359     137.111    -285.049
  H        3.448     138.430    -284.693
  H        3.364     137.053    -283.621

 3  4  5  6  7  8  9  10  11  12  22  25  29  30  31  32 0
 6-311+G(2d,p)
 ****
 33  36  37 0
 6-311+G(2d,p)
 ****
 1  2  13  14  15  16  17  18  19  20  21  23  24  26 0
 3-21G
 ****
 27  28  34  35  38  39  40  41  42  43  44  45  46  47  48 0
 3-21G
 ****


