%nproc=1
%NoSave
%Mem=1900MB
#P OB98/GEN NMR

erre ene a

0 1
  C      572.470    -306.438    -179.709
  O      571.794    -305.228    -180.009
  P      571.625    -304.167    -178.817
  C      572.131    -302.169    -180.414
  O      571.199    -302.787    -179.514
  C      571.394    -301.569    -181.609
  O      570.830    -302.619    -182.410
  C      570.230    -300.669    -181.226
  O      570.696    -299.406    -180.802
  C      569.445    -300.629    -182.534
  O      569.940    -299.605    -183.406
  C      569.701    -302.036    -183.119
  N      568.534    -302.901    -183.054
  C      567.467    -302.536    -183.894
  O      567.544    -301.530    -184.601
  N      566.330    -303.302    -183.859
  C      566.248    -304.320    -183.069
  N      565.098    -305.052    -183.084
  C      567.348    -304.734    -182.168
  C      568.454    -303.971    -182.205
  O      573.129    -303.905    -178.344
  O      570.748    -304.623    -177.690
  H      569.646    -298.752    -183.012
  H      573.160    -303.631    -177.407
  H      567.240    -305.588    -181.532
  H      569.302    -304.194    -181.580
  H      570.012    -301.958    -184.165
  H      568.381    -300.419    -182.360
  H      569.632    -301.130    -180.436
  H      572.123    -301.018    -182.223
  H      564.366    -304.752    -183.714
  H      572.831    -302.932    -180.773
  H      564.958    -305.884    -182.531
  H      572.694    -301.401    -179.870
  P      570.158    -298.835    -179.411
  C      572.271    -297.464    -178.876
  O      570.896    -297.423    -179.230
  O      570.940    -299.758    -178.344
  O      568.683    -298.857    -179.197
  H      570.608    -299.574    -177.450
  H      572.677    -296.449    -178.927
  H      572.824    -298.118    -179.553
  H      572.373    -297.829    -177.838
  H      572.512    -307.050    -180.586
  H      571.944    -306.958    -178.936
  H      573.464    -306.219    -179.379

 3  4  5  6  7  8  9  10  11  12  13  21  23  27  28  29  30  32 0
 6-311+G(2d,p)
 ****
 34  35 0
 6-311+G(2d,p)
 ****
 1  2  14  15  16  17  18  19  20  22  24  25  26 0
 3-21G
 ****
 31  33  36  37  38  39  40  41  42  43  44  45  46 0
 3-21G
 ****


