%nproc=1
%NoSave
%Mem=1900MB
#P OB98/GEN NMR

erre ene a

0 1
  C      118.823     435.735     311.405
  O      119.608     435.597     312.575
  H      118.634     436.796     311.227
  H      117.867     435.216     311.526
  H      119.354     435.327     310.538
  P      119.914     434.092     313.051
  C      118.040     434.636     314.788
  O      119.314     434.051     314.541
  C      117.765     434.659     316.284
  O      116.571     435.414     316.569
  C      117.531     433.281     316.899
  O      118.738     432.568     317.125
  C      116.858     433.677     318.200
  O      117.839     434.177     319.129
  C      115.920     434.805     317.721
  N      114.582     434.333     317.359
  C      113.662     434.171     318.410
  O      113.997     434.416     319.577
  N      112.400     433.704     318.123
  C      112.074     433.430     316.891
  N      110.819     432.956     316.670
  C      112.999     433.603     315.760
  C      114.217     434.050     316.058
  O      121.495     434.098     313.318
  O      119.442     433.002     312.146
  H      118.103     435.056     318.813
  H      121.765     433.244     313.741
  H      112.689     433.351     314.759
  H      114.955     434.193     315.276
  H      115.819     435.590     318.493
  H      116.351     432.843     318.690
  H      116.827     432.690     316.304
  H      118.608     435.179     316.773
  H      110.226     432.800     317.480
  H      117.273     434.042     314.268
  H      110.534     432.555     315.791
  H      118.022     435.659     314.399
  P      118.664     430.958     317.071
  C      118.093     430.662     319.593
  O      119.025     430.427     318.542
  O      119.963     430.568     316.212
  O      117.409     430.399     316.472
  H      119.786     429.827     315.614
  H      118.473     430.252     320.505
  H      117.160     430.195     319.354
  H      117.945     431.715     319.710

 6  7  8  9  10  11  12  13  14  15  16  26  30  31  32  33  35 0
 6-311+G(2d,p)
 ****
 37  38 0
 6-311+G(2d,p)
 ****
 1  2  3  4  5  17  18  19  20  21  22  23  24  25 0
 3-21G
 ****
 27  28  29  34  36  39  40  41  42  43  44  45  46 0
 3-21G
 ****


