%nproc=1
%NoSave
%Mem=1900MB
#P OB98/GEN NMR

erre ene a

0 1
  C      109.304    -170.325    -191.098
  O      110.055    -169.938    -189.969
  H      108.476    -170.958    -190.762
  H      109.918    -170.903    -191.793
  H      108.891    -169.447    -191.601
  P      111.444    -169.160    -190.188
  C      110.730    -167.115    -188.813
  O      111.609    -168.234    -188.878
  C      109.438    -167.461    -188.073
  O      109.733    -167.736    -186.678
  C      108.385    -166.346    -188.111
  O      107.112    -166.905    -188.441
  C      108.375    -165.810    -186.686
  O      107.141    -165.180    -186.356
  C      108.719    -167.078    -185.895
  N      109.182    -166.794    -184.541
  C      108.788    -167.693    -183.545
  O      108.055    -168.644    -183.822
  N      109.197    -167.474    -182.255
  C      109.895    -166.421    -181.970
  N      110.262    -166.257    -180.670
  C      110.296    -165.420    -182.981
  C      109.915    -165.670    -184.233
  O      111.556    -168.435    -191.487
  O      112.568    -170.279    -189.980
  H      107.014    -164.414    -186.959
  H      113.413    -169.977    -190.398
  H      110.869    -164.552    -182.693
  H      110.172    -164.995    -185.044
  H      107.849    -167.745    -185.830
  H      109.177    -165.070    -186.569
  H      108.613    -165.561    -188.828
  H      109.042    -168.395    -188.491
  H      109.968    -166.965    -180.008
  H      110.509    -166.783    -189.833
  H      110.800    -165.472    -180.333
  H      111.244    -166.309    -188.276
  P      106.683    -166.823    -189.986
  C      105.293    -169.009    -190.050
  O      105.283    -167.593    -190.152
  O      107.741    -167.785    -190.707
  O      106.720    -165.438    -190.547
  H      108.445    -167.257    -191.125
  H      104.299    -169.383    -190.180
  H      105.658    -169.295    -189.086
  H      105.929    -169.417    -190.807

 6  7  8  9  10  11  12  13  14  15  16  26  30  31  32  33  35 0
 6-311+G(2d,p)
 ****
 37  38 0
 6-311+G(2d,p)
 ****
 1  2  3  4  5  17  18  19  20  21  22  23  24  25 0
 3-21G
 ****
 27  28  29  34  36  39  40  41  42  43  44  45  46 0
 3-21G
 ****


