%nproc=1
%NoSave
%Mem=1900MB
#P OB98/GEN NMR

erre ene a

0 1
  C       84.673      95.329      29.024
  O       84.620      96.747      29.084
  P       84.148      97.433      30.454
  C       81.615      97.071      30.039
  O       82.741      96.768      30.850
  C       80.518      97.758      30.851
  O       79.419      98.104      29.966
  C       79.936      96.905      31.983
  O       79.578      97.795      33.046
  C       78.672      96.334      31.367
  O       77.737      95.906      32.352
  C       78.221      97.523      30.522
  N       73.349      96.555      29.311
  C       73.925      96.959      30.463
  N       75.230      97.197      30.708
  C       75.968      96.973      29.607
  C       75.525      96.525      28.375
  C       74.142      96.315      28.240
  N       73.551      95.914      27.065
  N       76.583      96.387      27.501
  C       77.645      96.744      28.193
  N       77.318      97.129      29.463
  O       83.746      98.910      29.987
  O       85.172      97.464      31.536
  H       77.533      96.665      32.931
  H       84.381      99.558      30.351
  H       73.247      97.120      31.297
  H       78.661      96.739      27.825
  H       77.720      98.292      31.124
  H       78.922      95.471      30.740
  H       80.614      96.127      32.351
  H       80.920      98.698      31.248
  H       81.215      96.139      29.631
  H       72.546      95.918      27.010
  H       74.105      95.916      26.215
  H       81.925      97.710      29.206
  P       80.473      97.738      34.375
  C       78.724      96.399      35.743
  O       80.021      96.431      35.179
  O       79.900      98.946      35.258
  O       81.939      97.881      34.130
  H       80.597      99.286      35.849
  H       78.352      95.372      35.714
  H       78.026      97.044      35.201
  H       78.778      96.728      36.785
  H       85.003      95.025      28.053
  H       83.699      94.927      29.211
  H       85.357      94.966      29.763

 3  4  5  6  7  8  9  10  11  12  22  25  29  30  31  32 0
 6-311+G(2d,p)
 ****
 33  36  37 0
 6-311+G(2d,p)
 ****
 1  2  13  14  15  16  17  18  19  20  21  23  24  26 0
 3-21G
 ****
 27  28  34  35  38  39  40  41  42  43  44  45  46  47  48 0
 3-21G
 ****


