%nproc=1
%NoSave
%Mem=1900MB
#P OB98/GEN NMR

erre ene a

0 1
  C       81.350    -274.797     155.760
  O       82.299    -275.523     156.560
  P       83.869    -275.352     156.262
  C       85.525    -273.546     157.183
  O       84.530    -274.520     157.465
  C       85.863    -272.755     158.450
  O       84.660    -272.226     159.053
  C       86.527    -273.578     159.545
  O       87.895    -273.821     159.271
  C       86.301    -272.691     160.766
  O       87.297    -271.657     160.842
  C       84.914    -272.090     160.469
  N       83.851    -272.703     161.262
  C       83.505    -272.052     162.441
  O       84.084    -271.047     162.851
  N       82.487    -272.618     163.159
  C       81.841    -273.785     162.854
  O       80.948    -274.253     163.548
  C       82.308    -274.470     161.639
  C       83.277    -273.910     160.914
  O       83.866    -274.271     155.077
  O       84.590    -276.591     155.847
  H       87.317    -271.223     159.965
  H       84.658    -274.395     154.520
  H       82.199    -272.147     164.001
  H       81.837    -275.409     161.375
  H       83.632    -274.404     160.014
  H       84.919    -271.012     160.670
  H       86.349    -273.253     161.705
  H       85.985    -274.520     159.684
  H       86.502    -271.909     158.164
  H       85.150    -272.858     156.422
  H       86.417    -274.049     156.794
  P       88.309    -275.342     158.959
  C       86.774    -276.111     156.985
  O       88.002    -275.550     157.400
  O       87.146    -276.137     159.723
  O       89.692    -275.677     159.410
  H       86.300    -275.654     159.704
  H       85.958    -275.835     157.658
  H       86.868    -277.201     156.956
  H       86.543    -275.747     155.980
  H       80.358    -275.025     156.090
  H       81.459    -275.080     154.734
  H       81.527    -273.747     155.861

 3  4  5  6  7  8  9  10  11  12  13  23  28  29  30  31  32 0
 6-311+G(2d,p)
 ****
 33  34 0
 6-311+G(2d,p)
 ****
 1  2  14  15  16  17  18  19  20  21  22  24  25  26 0
 3-21G
 ****
 27  35  36  37  38  39  40  41  42  43  44  45 0
 3-21G
 ****


