%nproc=1
%NoSave
%Mem=1900MB
#P OB98/GEN NMR

erre ene a

0 1
  C     -202.577    -899.070     430.196
  O     -203.074    -899.380     431.479
  H     -201.727    -898.380     430.273
  H     -202.238    -900.000     429.719
  H     -203.361    -898.620     429.573
  P     -203.642    -898.160     432.346
  C     -202.716    -895.790     432.896
  O     -202.425    -897.120     432.481
  C     -201.801    -894.810     432.174
  O     -202.159    -894.720     430.775
  C     -201.863    -893.380     432.702
  O     -201.071    -893.200     433.871
  C     -201.280    -892.620     431.530
  O     -199.847    -892.760     431.511
  C     -201.904    -893.360     430.338
  N     -203.995    -889.475     427.751
  C     -202.706    -889.759     428.058
  N     -202.238    -890.813     428.752
  C     -203.239    -891.617     429.150
  C     -204.603    -891.438     428.910
  C     -204.968    -890.308     428.174
  N     -206.279    -889.996     427.875
  N     -205.327    -892.440     429.515
  C     -204.424    -893.240     430.054
  N     -203.154    -892.770     429.872
  O     -203.760    -898.770     433.822
  O     -204.928    -897.560     431.874
  H     -199.501    -892.270     432.278
  H     -204.378    -898.230     434.358
  H     -201.968    -889.059     427.699
  H     -204.645    -894.150     430.600
  H     -201.226    -893.420     429.471
  H     -201.492    -891.555     431.560
  H     -202.897    -893.050     432.865
  H     -200.769    -895.190     432.229
  H     -202.556    -895.710     433.972
  H     -206.446    -889.080     427.506
  H     -207.013    -890.534     428.310
  H     -203.761    -895.560     432.669
  P     -201.273    -891.845     434.702
  C     -200.860    -889.349     434.092
  O     -200.521    -890.701     433.865
  O     -200.327    -892.058     435.969
  O     -202.691    -891.544     435.073
  H     -200.657    -891.533     436.730
  H     -200.270    -888.722     433.457
  H     -200.670    -889.101     435.115
  H     -201.897    -889.200     433.876

 6  7  8  9  10  11  12  13  14  15  25  28  32  33  34  35 0
 6-311+G(2d,p)
 ****
 36  39  40 0
 6-311+G(2d,p)
 ****
 1  2  3  4  5  16  17  18  19  20  21  22  23  24 0
 3-21G
 ****
 26  27  29  30  31  37  38  41  42  43  44  45  46  47 0
 3-21G
 ****
 48 0
 3-21G
 ****


