%nproc=1
%NoSave
%Mem=1900MB
#P OB98/GEN NMR

erre ene a

0 1
  C      -44.998    -770.471      68.560
  O      -44.797    -771.213      67.359
  P      -45.925    -772.295      66.962
  C      -45.688    -771.970      64.382
  O      -46.504    -771.837      65.534
  C      -46.092    -770.910      63.339
  O      -45.876    -769.587      63.862
  C      -45.303    -771.002      62.027
  O      -45.834    -772.001      61.182
  C      -45.458    -769.592      61.489
  O      -46.746    -769.421      60.836
  C      -45.406    -768.747      62.772
  N      -42.829    -764.672      64.367
  C      -44.168    -764.816      64.005
  N      -44.924    -763.711      64.132
  N      -44.703    -765.913      63.565
  C      -43.816    -766.933      63.471
  C      -42.470    -766.936      63.797
  C      -41.894    -765.722      64.329
  O      -40.749    -765.590      64.760
  N      -41.889    -768.157      63.560
  C      -42.891    -768.920      63.138
  N      -44.087    -768.216      63.084
  O      -47.116    -771.968      67.969
  O      -45.488    -773.718      67.021
  H      -46.722    -769.882      59.974
  H      -47.090    -772.591      68.742
  H      -42.473    -763.812      64.717
  H      -42.815    -769.955      62.854
  H      -46.078    -767.871      62.726
  H      -44.705    -769.336      60.752
  H      -44.584    -762.808      64.439
  H      -44.236    -771.188      62.248
  H      -45.905    -763.771      63.880
  H      -47.168    -771.035      63.146
  H      -45.825    -772.971      63.956
  H      -44.625    -771.841      64.656
  P      -44.945    -773.317      60.932
  C      -46.823    -775.121      60.701
  O      -45.775    -774.566      61.503
  O      -43.740    -773.145      61.989
  O      -44.441    -773.460      59.544
  H      -42.918    -773.495      61.585
  H      -46.920    -776.166      60.918
  H      -46.606    -774.978      59.638
  H      -47.762    -774.605      60.957
  H      -44.181    -769.794      68.702
  H      -45.052    -771.144      69.390
  H      -45.911    -769.918      68.489

 3  4  5  6  7  8  9  10  11  12  23  26  30  31 0
 6-311+G(2d,p)
 ****
 33  35  36  37  38 0
 6-311+G(2d,p)
 ****
 1  2  13  14  15  16  17  18  19  20  21  22  24  25 0
 3-21G
 ****
 27  28  29  32  34  39  40  41  42  43  44  45  46  47  48  49 0
 3-21G
 ****


