%nproc=1
%NoSave
%Mem=1900MB
#P OB98/GEN NMR

erre ene a

0 1
  C      263.853    -223.012      -6.518
  O      262.929    -223.803      -7.247
  P      261.401    -223.309      -7.296
  C      260.517    -225.051      -5.581
  O      260.743    -223.680      -5.879
  C      259.023    -225.338      -5.423
  O      258.557    -224.733      -4.185
  C      258.145    -224.790      -6.560
  O      257.074    -225.723      -6.738
  C      257.642    -223.483      -5.974
  O      256.515    -222.945      -6.643
  C      257.424    -223.902      -4.523
  N      254.211    -220.996      -1.805
  C      254.009    -222.101      -2.560
  N      254.916    -222.827      -3.247
  C      256.147    -222.314      -3.094
  C      256.503    -221.181      -2.375
  C      255.470    -220.510      -1.707
  N      255.681    -219.376      -0.946
  N      257.861    -220.950      -2.474
  C      258.314    -221.922      -3.243
  N      257.319    -222.780      -3.622
  O      260.717    -224.349      -8.299
  O      261.210    -221.889      -7.737
  H      256.149    -222.196      -6.131
  H      260.065    -223.908      -8.873
  H      252.980    -222.449      -2.618
  H      259.340    -222.038      -3.557
  H      256.518    -224.513      -4.406
  H      258.441    -222.732      -6.041
  H      258.682    -224.677      -7.507
  H      258.887    -226.424      -5.329
  H      261.018    -225.306      -4.640
  H      254.855    -218.857      -0.676
  H      256.573    -218.913      -1.047
  H      260.956    -225.671      -6.370
  P      256.710    -226.212      -8.227
  C      254.688    -224.628      -8.146
  O      255.867    -224.987      -8.837
  O      255.557    -227.277      -7.922
  O      257.847    -226.735      -9.037
  H      254.869    -226.906      -7.336
  H      254.270    -223.727      -8.606
  H      254.915    -224.412      -7.092
  H      253.952    -225.433      -8.212
  H      264.824    -223.458      -6.571
  H      263.543    -222.953      -5.495
  H      263.889    -222.028      -6.937

 3  4  5  6  7  8  9  10  11  12  22  25  29  30  31  32 0
 6-311+G(2d,p)
 ****
 33  36  37 0
 6-311+G(2d,p)
 ****
 1  2  13  14  15  16  17  18  19  20  21  23  24  26 0
 3-21G
 ****
 27  28  34  35  38  39  40  41  42  43  44  45  46  47  48 0
 3-21G
 ****


