%nproc=1
%NoSave
%Mem=1900MB
#P OB98/GEN NMR

erre ene a

0 1
  C      109.413     -24.037    -610.997
  O      110.743     -24.172    -610.539
  H      108.918     -23.212    -610.480
  H      109.431     -23.823    -612.069
  H      108.859     -24.965    -610.832
  P      110.943     -24.501    -608.983
  C      112.983     -22.901    -609.188
  O      111.875     -23.328    -608.405
  C      113.019     -21.382    -609.243
  O      111.861     -20.880    -609.947
  C      112.987     -20.701    -607.875
  O      114.266     -20.672    -607.266
  C      112.531     -19.304    -608.264
  O      113.637     -18.575    -608.835
  C      111.487     -19.612    -609.343
  N      107.096     -17.102    -608.527
  C      108.281     -16.706    -609.052
  N      109.402     -17.438    -609.233
  C      109.218     -18.695    -608.802
  C      108.081     -19.239    -608.243
  C      106.971     -18.379    -608.114
  N      105.770     -18.775    -607.568
  N      108.279     -20.561    -607.892
  C      109.519     -20.815    -608.274
  N      110.133     -19.717    -608.818
  O      111.917     -25.774    -608.986
  O      109.689     -24.745    -608.205
  H      114.056     -19.168    -609.484
  H      111.850     -26.249    -608.139
  H      108.329     -15.669    -609.364
  H      110.014     -21.774    -608.172
  H      111.466     -18.860    -610.140
  H      112.165     -18.725    -607.421
  H      112.236     -21.156    -607.215
  H      113.912     -21.079    -609.810
  H      112.878     -23.300    -610.204
  H      105.110     -18.044    -607.355
  H      105.717     -19.682    -607.117
  H      113.908     -23.290    -608.743
  P      114.386     -21.237    -605.765
  C      115.116     -18.796    -605.223
  O      114.381     -19.951    -604.814
  O      115.899     -21.755    -605.689
  O      113.400     -22.305    -605.424
  H      115.989     -22.465    -605.023
  H      115.013     -18.028    -604.485
  H      114.735     -18.444    -606.159
  H      116.150     -19.051    -605.331

 6  7  8  9  10  11  12  13  14  15  25  28  32  33  34  35 0
 6-311+G(2d,p)
 ****
 36  39  40 0
 6-311+G(2d,p)
 ****
 1  2  3  4  5  16  17  18  19  20  21  22  23  24 0
 3-21G
 ****
 26  27  29  30  31  37  38  41  42  43  44  45  46  47 0
 3-21G
 ****
 48 0
 3-21G
 ****


