%nproc=1
%NoSave
%Mem=1900MB
#P OB98/GEN NMR

erre ene a

0 1
  C      591.645     366.006     792.072
  O      591.972     367.326     792.468
  H      592.539     365.387     792.157
  H      591.302     365.991     791.037
  H      590.870     365.595     792.732
  P      590.852     368.465     792.330
  C      590.774     368.494     789.741
  O      591.118     369.198     790.930
  C      591.457     369.121     788.521
  O      590.983     370.497     788.378
  C      592.993     369.180     788.623
  O      593.516     369.103     787.288
  C      593.202     370.570     789.195
  O      594.543     370.978     789.079
  C      592.146     371.355     788.415
  N      591.849     372.647     789.017
  C      592.859     373.614     788.933
  O      593.925     373.353     788.385
  N      592.633     374.845     789.494
  C      591.530     375.064     790.142
  N      591.385     376.305     790.693
  C      590.470     374.055     790.305
  C      590.687     372.878     789.719
  O      590.706     369.378     793.497
  O      589.503     367.644     792.053
  H      594.838     370.938     788.137
  H      588.954     367.635     792.862
  H      589.576     374.282     790.873
  H      589.967     372.068     789.781
  H      592.472     371.522     787.376
  H      592.967     370.584     790.266
  H      593.410     368.385     789.244
  H      591.142     368.579     787.619
  H      592.143     376.965     790.565
  H      589.691     368.541     789.629
  H      590.578     376.580     791.236
  H      591.076     367.440     789.829
  P      594.246     367.784     786.718
  C      596.577     368.362     787.644
  O      595.798     368.109     786.485
  O      593.555     367.181     785.536
  O      594.257     366.751     787.947
  H      594.206     365.842     787.594
  H      597.588     368.564     787.357
  H      596.553     367.505     788.284
  H      596.178     369.208     788.164

 6  7  8  9  10  11  12  13  14  15  16  26  30  31  32  33  35 0
 6-311+G(2d,p)
 ****
 37  38 0
 6-311+G(2d,p)
 ****
 1  2  3  4  5  17  18  19  20  21  22  23  24  25 0
 3-21G
 ****
 27  28  29  34  36  39  40  41  42  43  44  45  46 0
 3-21G
 ****


