%nproc=1
%NoSave
%Mem=1900MB
#P OB98/GEN NMR

erre ene a

0 1
  C       61.973      11.440     -79.727
  O       61.263      12.077     -78.685
  P       60.341      13.353     -78.971
  C       62.156      14.865     -77.977
  O       61.292      14.639     -79.082
  C       63.041      16.089     -78.204
  O       63.754      15.942     -79.460
  C       62.274      17.418     -78.250
  O       63.088      18.400     -77.600
  C       62.177      17.704     -79.736
  O       61.962      19.082     -80.009
  C       63.516      17.141     -80.224
  N       63.518      16.870     -81.653
  C       63.714      17.960     -82.503
  O       63.744      19.103     -82.046
  N       63.855      17.724     -83.848
  C       63.627      16.536     -84.316
  N       63.844      16.330     -85.643
  C       63.171      15.415     -83.469
  C       63.181      15.635     -82.158
  O       59.183      13.518     -78.043
  O       59.839      13.146     -80.478
  H       58.865      13.210     -80.502
  H       62.817      19.557     -79.929
  H       62.873      14.480     -83.920
  H       62.889      14.867     -81.452
  H       64.333      17.837     -79.995
  H       61.343      17.138     -80.166
  H       61.303      17.364     -77.750
  H       63.794      16.118     -77.405
  H       64.196      17.111     -86.183
  H       62.791      13.984     -77.857
  H       64.003      15.400     -86.028
  H       61.567      14.978     -77.060
  P       62.379      19.434     -76.596
  C       61.928      21.238     -78.405
  O       61.382      20.348     -77.454
  O       63.581      20.454     -76.282
  O       61.850      18.867     -75.319
  H       63.422      20.874     -75.417
  H       61.114      21.823     -78.843
  H       62.426      20.683     -79.203
  H       62.636      21.923     -77.930
  H       62.525      10.614     -79.329
  H       62.649      12.137     -80.176
  H       61.283      11.086     -80.464

 3  4  5  6  7  8  9  10  11  12  13  24  27  28  29  30  32 0
 6-311+G(2d,p)
 ****
 34  35 0
 6-311+G(2d,p)
 ****
 1  2  14  15  16  17  18  19  20  21  22  23  25  26 0
 3-21G
 ****
 31  33  36  37  38  39  40  41  42  43  44  45  46 0
 3-21G
 ****


