%nproc=1
%NoSave
%Mem=1900MB
#P OB98/GEN NMR

erre ene a

0 1
  C      155.227     193.706      18.422
  O      155.238     194.980      19.087
  P      155.904     195.096      20.546
  C      157.260     197.246      19.931
  O      156.325     196.623      20.798
  C      157.179     198.769      20.075
  O      155.971     199.272      19.458
  C      157.125     199.261      21.513
  O      158.397     199.218      22.137
  C      156.588     200.675      21.328
  O      157.646     201.585      20.981
  C      155.617     200.493      20.144
  N      154.218     200.486      20.561
  C      153.629     201.727      20.773
  O      154.243     202.788      20.684
  N      152.308     201.706      21.132
  C      151.555     200.590      21.359
  O      150.379     200.638      21.697
  C      152.255     199.308      21.197
  C      153.534     199.314      20.817
  O      157.327     194.393      20.319
  O      155.156     194.430      21.654
  H      158.365     201.438      21.628
  H      157.637     194.006      21.159
  H      151.854     202.596      21.262
  H      151.700     198.399      21.390
  H      154.065     198.375      20.692
  H      155.759     201.299      19.414
  H      156.115     201.065      22.235
  H      156.395     198.673      22.083
  H      158.037     199.208      19.549
  H      157.032     196.972      18.897
  H      158.265     196.890      20.174
  P      158.499     198.397      23.514
  C      160.817     197.227      23.214
  O      160.068     198.263      23.809
  O      158.040     196.941      23.033
  O      157.669     198.982      24.606
  H      158.315     196.753      22.118
  H      160.440     196.977      22.220
  H      160.777     196.339      23.852
  H      161.857     197.552      23.124
  H      154.750     193.805      17.469
  H      154.690     192.997      19.018
  H      156.232     193.367      18.284

 3  4  5  6  7  8  9  10  11  12  13  23  28  29  30  31  32 0
 6-311+G(2d,p)
 ****
 33  34 0
 6-311+G(2d,p)
 ****
 1  2  14  15  16  17  18  19  20  21  22  24  25  26 0
 3-21G
 ****
 27  35  36  37  38  39  40  41  42  43  44  45 0
 3-21G
 ****


