%nproc=1
%NoSave
%Mem=1900MB
#P OB98/GEN NMR

erre ene a

0 1
  C      106.680     -36.731     -22.465
  O      107.891     -36.140     -21.989
  P      109.262     -36.712     -22.597
  C      110.193     -37.713     -20.395
  O      109.729     -37.967     -21.712
  C      111.172     -38.793     -19.915
  O      110.509     -40.079     -19.801
  C      112.373     -38.982     -20.843
  O      113.495     -39.327     -20.027
  C      111.981     -40.193     -21.667
  O      113.124     -40.817     -22.245
  C      111.238     -41.026     -20.610
  N      110.354     -42.035     -21.189
  C      110.539     -43.355     -20.774
  O      111.460     -43.642     -20.008
  N      109.706     -44.328     -21.267
  C      108.802     -44.016     -22.142
  N      108.008     -45.025     -22.596
  C      108.608     -42.646     -22.653
  C      109.409     -41.717     -22.135
  O      110.329     -35.575     -22.237
  O      109.205     -36.960     -24.070
  H      113.836     -40.835     -21.569
  H      110.843     -35.337     -23.031
  H      107.855     -42.437     -23.398
  H      109.343     -40.684     -22.444
  H      111.952     -41.543     -19.955
  H      111.298     -39.899     -22.473
  H      112.607     -38.096     -21.441
  H      111.520     -38.514     -18.914
  H      108.166     -45.951     -22.216
  H      109.346     -37.669     -19.706
  H      107.275     -44.897     -23.276
  H      110.657     -36.722     -20.367
  P      114.500     -38.160     -19.585
  C      115.510     -38.267     -21.944
  O      114.923     -37.443     -20.957
  O      115.828     -38.994     -19.242
  O      114.108     -37.273     -18.453
  H      116.509     -38.394     -18.886
  H      115.632     -37.684     -22.859
  H      114.868     -39.127     -22.156
  H      116.495     -38.607     -21.611
  H      105.844     -36.266     -21.986
  H      106.682     -37.777     -22.241
  H      106.608     -36.593     -23.524

 3  4  5  6  7  8  9  10  11  12  13  21  23  27  28  29  30  32 0
 6-311+G(2d,p)
 ****
 34  35 0
 6-311+G(2d,p)
 ****
 1  2  14  15  16  17  18  19  20  22  24  25  26 0
 3-21G
 ****
 31  33  36  37  38  39  40  41  42  43  44  45  46 0
 3-21G
 ****


