%nproc=1
%NoSave
%Mem=1900MB
#P OB98/GEN NMR

erre ene a

0 1
  C     -588.016    -106.642    -515.381
  O     -588.710    -106.142    -514.252
  P     -587.890    -106.003    -512.876
  C     -587.791    -103.427    -513.207
  O     -587.058    -104.632    -513.009
  C     -586.851    -102.281    -513.538
  O     -586.396    -102.388    -514.903
  C     -587.475    -100.894    -513.425
  O     -587.511    -100.436    -512.084
  C     -586.508    -100.064    -514.262
  O     -585.353     -99.721    -513.464
  C     -586.110    -101.048    -515.374
  N     -585.800     -99.227    -520.094
  C     -584.839     -99.283    -519.098
  N     -583.608     -98.813    -519.423
  N     -585.059     -99.759    -517.901
  C     -586.317    -100.229    -517.740
  C     -587.357    -100.221    -518.643
  C     -587.110     -99.649    -519.951
  O     -587.934     -99.513    -520.850
  N     -588.480    -100.805    -518.114
  C     -588.116    -101.196    -516.912
  N     -586.820    -100.837    -516.624
  O     -586.759    -107.131    -513.013
  O     -588.698    -106.171    -511.633
  H     -584.917    -100.556    -513.225
  H     -586.461    -107.416    -512.130
  H     -585.564     -98.859    -521.004
  H     -588.753    -101.732    -516.217
  H     -585.026    -101.004    -515.576
  H     -586.943     -99.129    -514.616
  H     -583.341     -98.556    -520.359
  H     -588.465    -100.869    -513.885
  H     -582.883     -98.880    -518.715
  H     -585.970    -102.361    -512.882
  H     -588.337    -103.184    -512.293
  H     -588.509    -103.583    -514.025
  P     -588.831     -99.620    -511.636
  C     -589.481    -100.761    -509.395
  O     -589.701    -100.664    -510.790
  O     -589.638     -99.459    -513.008
  O     -588.545     -98.309    -510.990
  H     -590.221     -98.679    -512.972
  H     -589.252     -99.783    -508.956
  H     -588.647    -101.449    -509.203
  H     -590.383    -101.153    -508.919
  H     -588.680    -106.680    -516.219
  H     -587.652    -107.626    -515.169
  H     -587.192    -105.998    -515.607

 3  4  5  6  7  8  9  10  11  12  23  26  30  31  33  0
 6-311+G(2d,p)
 ****
 35  36  37  38 0
 6-311+G(2d,p)
 ****
 1  2  13  14  15  16  17  18  19  20  21  22  24  25  27  28  29 0
 3-21G
 ****
 32  34  39  40  41  42  43  44  45  46  47  48  49 0
 3-21G
 ****


