%nproc=1
%NoSave
%Mem=1900MB
#P OB98/GEN NMR

erre ene a

0 1
  C     -446.957    -205.408     -20.450
  O     -448.262    -204.972     -20.809
  P     -449.169    -204.268     -19.692
  C     -449.104    -206.304     -17.987
  O     -448.884    -204.935     -18.268
  C     -448.519    -206.638     -16.603
  O     -447.122    -206.284     -16.555
  C     -449.217    -205.901     -15.461
  O     -450.365    -206.594     -15.000
  C     -448.106    -205.813     -14.426
  O     -447.954    -207.070     -13.749
  C     -446.878    -205.529     -15.332
  N     -446.592    -204.120     -15.695
  C     -446.171    -203.221     -14.720
  O     -446.018    -203.514     -13.527
  N     -445.912    -201.947     -15.142
  C     -445.859    -201.518     -16.439
  O     -445.566    -200.372     -16.766
  C     -446.167    -202.535     -17.446
  C     -446.525    -203.767     -17.038
  O     -450.651    -204.749     -20.045
  O     -449.054    -202.780     -19.659
  H     -447.096    -207.049     -13.288
  H     -451.206    -203.990     -20.311
  H     -445.671    -201.267     -14.437
  H     -446.098    -202.255     -18.492
  H     -446.756    -204.527     -17.774
  H     -445.966    -205.927     -14.875
  H     -448.344    -205.083     -13.660
  H     -449.471    -204.877     -15.773
  H     -448.604    -207.728     -16.451
  H     -448.645    -206.933     -18.749
  H     -450.179    -206.518     -18.007
  P     -451.827    -206.118     -15.464
  C     -452.694    -204.649     -13.546
  O     -452.038    -204.677     -14.797
  O     -452.931    -207.097     -15.257
  O     -451.624    -205.757     -17.014
  H     -451.888    -206.522     -17.587
  H     -452.635    -203.634     -13.137
  H     -452.217    -205.350     -12.848
  H     -453.745    -204.921     -13.673
  H     -446.484    -205.854     -21.300
  H     -447.026    -206.128     -19.662
  H     -446.380    -204.570     -20.119

 3  4  5  6  7  8  9  10  11  12  13  23  28  29  30  31  32 0
 6-311+G(2d,p)
 ****
 33  34 0
 6-311+G(2d,p)
 ****
 1  2  14  15  16  17  18  19  20  21  22  24  25  26  27 0
 3-21G
 ****
 35  36  37  38  39  40  41  42  43  44  45 0
 3-21G
 ****


