%nproc=1
%NoSave
%Mem=1900MB
#P OB98/GEN NMR

erre ene a

0 1
  C        1.093      31.549      -4.698
  O        2.003      30.880      -5.553
  P        3.272      30.149      -4.899
  C        3.449      28.009      -3.387
  O        2.696      29.134      -3.800
  C        3.514      27.944      -1.858
  O        4.467      28.936      -1.385
  C        2.179      28.217      -1.153
  O        2.140      27.389       0.015
  C        2.297      29.681      -0.765
  O        1.431      30.036       0.301
  C        3.788      29.766      -0.423
  N        4.316      31.130      -0.460
  C        5.387      31.435       0.375
  O        5.899      30.634       1.153
  N        5.843      32.726       0.306
  C        5.307      33.732      -0.443
  O        5.746      34.875      -0.451
  C        4.148      33.362      -1.267
  C        3.721      32.099      -1.245
  O        3.905      31.338      -4.040
  O        4.191      29.535      -5.899
  H        3.235      31.927      -3.653
  H        1.560      30.983       0.491
  H        6.644      32.960       0.875
  H        3.685      34.137      -1.865
  H        2.868      31.803      -1.843
  H        3.972      29.328       0.565
  H        2.048      30.307      -1.630
  H        1.317      28.004      -1.790
  H        3.903      26.959      -1.573
  H        4.464      28.086      -3.784
  H        2.995      27.100      -3.797
  P        0.702      27.040       0.650
  C       -1.365      25.738      -0.288
  O       -0.242      26.549      -0.546
  O        0.159      28.521       0.948
  O        0.744      26.182       1.871
  H        0.261      29.120       0.192
  H       -2.043      25.794      -1.143
  H       -1.901      26.069       0.605
  H       -1.046      24.700      -0.159
  H        0.308      31.982      -5.282
  H        1.607      32.320      -4.164
  H        0.677      30.850      -4.003

 3  4  5  6  7  8  9  10  11  12  13  24  28  29  30  31  32 0
 6-311+G(2d,p)
 ****
 33  34 0
 6-311+G(2d,p)
 ****
 1  2  14  15  16  17  18  19  20  21  22  23  25  26  27 0
 3-21G
 ****
 35  36  37  38  39  40  41  42  43  44  45 0
 3-21G
 ****


