%nproc=1
%NoSave
%Mem=1900MB
#P OB98/GEN NMR

erre ene a

0 1
  C     -107.909     154.696     476.367
  O     -107.536     154.144     477.618
  H     -108.987     154.884     476.374
  H     -107.687     153.999     475.552
  H     -107.386     155.640     476.197
  P     -106.029     153.634     477.801
  C     -106.798     152.359     479.918
  O     -106.132     152.287     478.660
  C     -107.374     150.995     480.284
  O     -108.499     150.681     479.438
  C     -106.383     149.854     480.095
  O     -105.429     149.835     481.139
  C     -107.322     148.663     480.038
  O     -107.730     148.264     481.354
  C     -108.515     149.249     479.244
  N     -108.464     148.912     477.824
  C     -109.204     147.793     477.433
  O     -109.853     147.153     478.259
  N     -109.167     147.414     476.112
  C     -108.475     148.098     475.259
  N     -108.478     147.670     473.967
  C     -107.689     149.295     475.628
  C     -107.726     149.635     476.914
  O     -105.038     154.627     478.325
  O     -105.632     153.104     476.341
  H     -108.459     147.624     481.224
  H     -105.242     153.824     475.810
  H     -107.131     149.837     474.879
  H     -107.181     150.506     477.270
  H     -109.465     148.882     479.650
  H     -106.852     147.806     479.562
  H     -105.888     149.944     479.119
  H     -107.731     151.037     481.322
  H     -109.025     146.839     473.760
  H     -107.605     153.093     479.816
  H     -108.050     148.174     473.203
  H     -106.114     152.702     480.701
  P     -103.929     149.337     480.866
  C     -103.857     148.843     483.396
  O     -103.579     148.351     482.089
  O     -102.936     150.420     480.609
  O     -104.102     148.327     479.631
  H     -104.266     148.816     478.787
  H     -103.584     148.104     484.121
  H     -104.902     149.058     483.481
  H     -103.294     149.736     483.568

 6  7  8  9  10  11  12  13  14  15  16  26  30  31  32  33  35 0
 6-311+G(2d,p)
 ****
 37  38 0
 6-311+G(2d,p)
 ****
 1  2  3  4  5  17  18  19  20  21  22  23  24  25 0
 3-21G
 ****
 27  28  29  34  36  39  40  41  42  43  44  45  46 0
 3-21G
 ****


