%nproc=1
%NoSave
%Mem=1900MB
#P OB98/GEN NMR

erre ene a

0 1
  C      422.029    -899.198    -404.148
  O      422.170    -899.698    -402.825
  P      422.563    -898.658    -401.656
  C      420.238    -898.198    -400.586
  O      421.282    -897.718    -401.407
  C      420.259    -897.478    -399.232
  O      421.554    -897.688    -398.625
  C      420.016    -895.968    -399.307
  O      419.326    -895.588    -398.100
  C      421.426    -895.398    -399.290
  O      421.456    -894.048    -398.868
  C      422.109    -896.368    -398.351
  N      426.581    -894.938    -396.470
  C      425.290    -894.648    -396.050
  N      425.199    -893.918    -394.928
  N      424.220    -895.048    -396.645
  C      424.470    -895.768    -397.766
  C      425.687    -896.118    -398.306
  C      426.869    -895.698    -397.603
  O      428.023    -896.028    -397.902
  N      425.530    -896.798    -399.479
  C      424.234    -896.958    -399.596
  N      423.555    -896.398    -398.559
  O      423.594    -897.688    -402.405
  O      423.130    -899.268    -400.401
  H      421.185    -894.018    -397.925
  H      424.515    -897.978    -402.241
  H      427.393    -894.638    -395.948
  H      423.733    -897.468    -400.407
  H      421.931    -896.138    -397.296
  H      421.860    -895.458    -400.300
  H      426.005    -893.598    -394.363
  H      419.431    -895.658    -400.186
  H      424.291    -893.708    -394.556
  H      419.512    -897.958    -398.587
  H      420.396    -899.278    -400.410
  H      419.263    -898.078    -401.095
  P      418.519    -894.208    -398.097
  C      416.383    -894.938    -399.372
  O      417.593    -894.198    -399.398
  O      419.634    -893.118    -398.462
  O      417.852    -893.888    -396.798
  H      419.439    -892.288    -398.013
  H      415.665    -894.518    -400.089
  H      415.904    -894.918    -398.388
  H      416.592    -895.978    -399.607
  H      421.768    -900.000    -404.807
  H      422.953    -898.762    -404.465
  H      421.259    -898.455    -404.168

 3  4  5  6  7  8  9  10  11  12  23  26  30  31 0
 6-311+G(2d,p)
 ****
 33  35  36  37  38 0
 6-311+G(2d,p)
 ****
 1  2  13  14  15  16  17  18  19  20  21  22  24  25 0
 3-21G
 ****
 27  28  29  32  34  39  40  41  42  43  44  45  46  47  48  49 0
 3-21G
 ****


