%nproc=1
%NoSave
%Mem=1900MB
#P OB98/GEN NMR

erre ene a

0 1
  C      324.966     275.995     768.642
  O      325.087     275.704     770.021
  H      325.296     275.120     768.076
  H      325.603     276.844     768.379
  H      323.929     276.209     768.383
  P      324.571     276.786     771.087
  C      322.112     277.422     771.485
  O      323.071     276.374     771.477
  C      320.707     276.864     771.694
  O      320.339     276.069     770.538
  C      320.575     275.979     772.937
  O      319.298     276.214     773.527
  C      320.622     274.570     772.368
  O      319.945     273.628     773.205
  C      319.961     274.758     771.004
  N      318.944     270.122     769.273
  C      318.263     270.904     770.180
  N      317.152     270.365     770.737
  N      318.630     272.110     770.526
  C      319.751     272.527     769.880
  C      320.516     271.849     768.962
  C      320.104     270.506     768.600
  O      320.671     269.767     767.812
  N      321.588     272.607     768.559
  C      321.477     273.735     769.232
  N      320.381     273.731     770.059
  O      324.734     278.217     770.678
  O      325.402     276.454     772.411
  H      320.354     272.749     773.036
  H      326.151     277.070     772.516
  H      318.622     269.197     769.048
  H      322.154     274.574     769.170
  H      318.868     274.709     771.060
  H      321.666     274.247     772.262
  H      316.795     269.447     770.512
  H      321.366     276.153     773.672
  H      316.621     270.929     771.388
  H      320.000     277.704     771.735
  H      322.165     277.940     770.520
  H      322.358     278.131     772.281
  P      319.179     277.322     774.688
  C      318.892     279.877     774.849
  O      318.871     278.734     773.991
  O      320.277     277.324     775.692
  O      317.766     276.957     775.375
  H      317.807     277.220     776.316
  H      318.674     280.755     774.278
  H      319.861     279.971     775.294
  H      318.157     279.760     775.617

 6  7  8  9  10  11  12  13  14  15  26  29  33  34 0
 6-311+G(2d,p)
 ****
 36  38  39  40  41 0
 6-311+G(2d,p)
 ****
 1  2  3  4  5  16  17  18  19  20  21  22  23  24  25 0
 3-21G
 ****
 27  28  30  31  32  35  37  42  43  44  45  46  47 0
 3-21G
 ****
 48  49 0
 3-21G
 ****


