%nproc=1
%NoSave
%Mem=1900MB
#P OB98/GEN NMR

erre ene a

0 1
  C      140.617    -486.455    -828.641
  O      140.288    -486.443    -830.005
  P      141.245    -487.127    -831.100
  C      141.140    -484.946    -832.488
  O      140.946    -486.365    -832.481
  C      141.165    -484.420    -833.935
  O      142.249    -484.988    -834.664
  C      139.905    -484.727    -834.727
  O      138.834    -483.875    -834.342
  C      140.400    -484.529    -836.155
  O      140.384    -483.142    -836.522
  C      141.862    -485.054    -836.054
  N      142.005    -486.382    -836.601
  C      142.083    -486.476    -838.009
  O      141.996    -485.449    -838.693
  N      142.225    -487.713    -838.601
  C      142.245    -488.771    -837.848
  N      142.376    -489.978    -838.478
  C      142.147    -488.743    -836.370
  C      142.019    -487.527    -835.827
  O      141.189    -488.621    -831.165
  O      142.705    -486.567    -830.705
  H      140.681    -483.113    -837.468
  H      143.048    -487.016    -829.880
  H      142.167    -489.642    -835.788
  H      141.943    -487.398    -834.736
  H      142.549    -484.371    -836.604
  H      139.789    -485.087    -836.874
  H      139.625    -485.781    -834.570
  H      141.315    -483.323    -833.876
  H      142.407    -489.956    -839.491
  H      142.101    -484.748    -832.022
  H      142.372    -490.868    -837.997
  H      140.353    -484.482    -831.893
  P      137.619    -484.454    -833.476
  C      135.510    -483.206    -834.250
  O      136.557    -483.275    -833.274
  O      138.016    -485.152    -832.213
  O      136.871    -485.460    -834.480
  H      136.653    -486.270    -834.006
  H      134.700    -482.588    -833.839
  H      135.142    -484.192    -834.505
  H      135.901    -482.703    -835.160
  H      139.854    -485.950    -828.086
  H      141.553    -485.957    -828.495
  H      140.695    -487.467    -828.302

 3  4  5  6  7  8  9  10  11  12  13  23  27  28  29  30  32 0
 6-311+G(2d,p)
 ****
 34  35 0
 6-311+G(2d,p)
 ****
 1  2  14  15  16  17  18  19  20  21  22  24  25  26 0
 3-21G
 ****
 31  33  36  37  38  39  40  41  42  43  44  45  46 0
 3-21G
 ****


