%nproc=1
%NoSave
%Mem=1900MB
#P OB98/GEN NMR

erre ene a

0 1
  C      472.548     -97.813      -1.173
  O      472.814     -96.486      -0.762
  P      473.928     -95.612      -1.512
  C      472.211     -93.823      -2.187
  O      473.202     -94.738      -2.645
  C      472.607     -92.390      -2.536
  O      472.673     -92.210      -3.969
  C      471.623     -91.339      -2.052
  O      471.692     -91.150      -0.649
  C      472.042     -90.135      -2.883
  O      473.188     -89.493      -2.310
  C      472.415     -90.806      -4.225
  N      471.393     -90.627      -5.241
  C      471.830     -90.144      -6.480
  O      473.009     -89.816      -6.642
  N      470.917     -90.031      -7.499
  C      469.665     -90.262      -7.268
  N      468.813     -90.194      -8.329
  C      469.138     -90.616      -5.933
  C      470.050     -90.802      -4.984
  O      475.123     -96.377      -1.984
  O      474.350     -94.507      -0.432
  H      475.326     -94.496      -0.360
  H      473.256     -88.614      -2.728
  H      468.076     -90.730      -5.779
  H      469.762     -91.088      -3.975
  H      473.362     -90.392      -4.603
  H      471.253     -89.380      -2.961
  H      470.602     -91.636      -2.328
  H      473.606     -92.200      -2.119
  H      469.212     -89.963      -9.232
  H      472.115     -93.923      -1.103
  H      467.906     -90.660      -8.334
  H      471.247     -94.076      -2.644
  P      470.301     -91.058       0.143
  C      470.424     -93.231       1.541
  O      469.828     -92.552       0.457
  O      469.271     -90.557      -0.978
  O      470.316     -90.131       1.317
  H      468.621     -89.953      -0.580
  H      469.775     -94.060       1.838
  H      470.566     -92.568       2.402
  H      471.390     -93.636       1.232
  H      471.779     -98.230      -0.557
  H      473.437     -98.400      -1.080
  H      472.226     -97.813      -2.194

 3  4  5  6  7  8  9  10  11  12  13  24  27  28  29  30  32 0
 6-311+G(2d,p)
 ****
 34  35 0
 6-311+G(2d,p)
 ****
 1  2  14  15  16  17  18  19  20  21  22  23  25  26 0
 3-21G
 ****
 31  33  36  37  38  39  40  41  42  43  44  45  46 0
 3-21G
 ****


