%nproc=1
%NoSave
%Mem=1900MB
#P OB98/GEN NMR

erre ene a

0 1
  C     2528.197    -634.307     889.582
  O     2527.145    -634.290     888.604
  P     2526.387    -632.886     888.414
  C     2526.809    -632.469     885.880
  O     2527.113    -632.111     887.226
  C     2527.717    -633.610     885.428
  O     2527.589    -634.790     886.237
  C     2527.421    -634.069     883.985
  O     2528.017    -633.178     883.064
  C     2528.055    -635.462     883.986
  O     2529.466    -635.382     883.706
  C     2527.812    -635.942     885.405
  N     2526.476    -640.810     885.973
  C     2527.714    -640.258     885.696
  N     2528.749    -641.123     885.589
  N     2527.922    -638.974     885.551
  C     2526.800    -638.238     885.698
  C     2525.517    -638.651     885.987
  C     2525.314    -640.092     886.153
  O     2524.244    -640.631     886.410
  N     2524.658    -637.605     886.119
  C     2525.383    -636.562     885.773
  N     2526.693    -636.868     885.569
  O     2526.779    -632.067     889.733
  O     2524.901    -633.043     888.260
  H     2529.596    -634.995     882.828
  H     2525.970    -631.983     890.301
  H     2526.380    -641.805     886.062
  H     2524.983    -635.550     885.685
  H     2528.680    -636.461     885.808
  H     2527.625    -636.088     883.195
  H     2528.667    -642.111     885.679
  H     2526.340    -634.145     883.836
  H     2529.674    -640.729     885.393
  H     2528.748    -633.260     885.489
  H     2526.929    -631.610     885.214
  H     2525.744    -632.772     885.836
  P     2527.116    -631.987     882.491
  C     2528.786    -630.009     882.669
  O     2527.603    -630.617     883.152
  O     2525.687    -632.254     883.154
  O     2526.993    -631.957     880.993
  H     2524.970    -632.162     882.488
  H     2528.718    -628.943     882.822
  H     2528.931    -630.220     881.595
  H     2529.643    -630.408     883.247
  H     2528.629    -635.285     889.624
  H     2527.797    -634.052     890.541
  H     2528.949    -633.597     889.309

 3  4  5  6  7  8  9  10  11  12  23  26  30  31 0
 6-311+G(2d,p)
 ****
 33  35  36  37  38 0
 6-311+G(2d,p)
 ****
 1  2  13  14  15  16  17  18  19  20  21  22  24  25 0
 3-21G
 ****
 27  28  29  32  34  39  40  41  42  43  44  45  46  47  48  49 0
 3-21G
 ****


