%nproc=1
%NoSave
%Mem=1900MB
#P OB98/GEN NMR

erre ene a

0 1
  C      -59.955     -17.637     -28.764
  O      -58.920     -16.776     -29.203
  H      -60.917     -17.149     -28.939
  H      -59.847     -17.829     -27.693
  H      -59.929     -18.579     -29.317
  P      -57.447     -17.401     -29.248
  C      -56.177     -18.928     -30.960
  O      -57.421     -18.480     -30.441
  C      -56.334     -20.319     -31.568
  O      -56.721     -21.276     -30.563
  C      -57.435     -20.425     -32.609
  O      -57.096     -19.797     -33.826
  C      -57.570     -21.937     -32.724
  O      -56.608     -22.488     -33.632
  C      -57.286     -22.403     -31.275
  N      -58.479     -22.922     -30.633
  C      -59.125     -23.959     -31.319
  O      -58.664     -24.380     -32.380
  N      -60.292     -24.460     -30.804
  C      -60.787     -23.954     -29.718
  N      -61.964     -24.474     -29.279
  C      -60.138     -22.861     -28.965
  C      -58.998     -22.396     -29.475
  O      -57.417     -18.310     -27.933
  O      -56.345     -16.399     -29.323
  H      -56.723     -23.460     -33.597
  H      -58.189     -18.892     -27.841
  H      -60.584     -22.483     -28.057
  H      -58.456     -21.594     -28.987
  H      -56.522     -23.191     -31.268
  H      -58.557     -22.226     -33.093
  H      -58.376     -20.028     -32.205
  H      -55.363     -20.622     -31.982
  H      -62.402     -25.183     -29.855
  H      -55.414     -18.940     -30.175
  H      -62.480     -24.108     -28.493
  H      -55.857     -18.211     -31.723
  P      -58.221     -19.323     -34.860
  C      -59.827     -17.308     -34.897
  O      -59.141     -18.255     -34.085
  O      -58.982     -20.420     -35.524
  O      -57.409     -18.386     -35.874
  H      -56.975     -17.618     -35.464
  H      -60.402     -16.655     -34.275
  H      -60.478     -17.823     -35.572
  H      -59.116     -16.735     -35.454

 6  7  8  9  10  11  12  13  14  15  16  26  30  31  32  33  35 0
 6-311+G(2d,p)
 ****
 37  38 0
 6-311+G(2d,p)
 ****
 1  2  3  4  5  17  18  19  20  21  22  23  24  25 0
 3-21G
 ****
 27  28  29  34  36  39  40  41  42  43  44  45  46 0
 3-21G
 ****


