%nproc=1
%NoSave
%Mem=1900MB
#P OB98/GEN NMR

erre ene a

0 1
  C        6.578       0.340      -2.128
  O        5.241       0.647      -2.481
  P        4.303      -0.533      -3.026
  C        4.294      -2.003      -5.202
  O        4.894      -0.964      -4.453
  C        5.366      -2.826      -5.923
  O        6.405      -3.184      -4.971
  C        4.852      -4.128      -6.551
  O        5.592      -4.338      -7.760
  C        5.221      -5.172      -5.512
  O        5.298      -6.481      -6.053
  C        6.559      -4.615      -5.012
  N        6.948      -5.127      -3.698
  C        7.627      -6.340      -3.648
  O        7.899      -7.015      -4.638
  N        7.966      -6.779      -2.394
  C        7.643      -6.175      -1.214
  O        7.958      -6.623      -0.119
  C        6.883      -4.923      -1.328
  C        6.586      -4.460      -2.543
  O        2.969       0.272      -3.383
  O        4.124      -1.653      -2.058
  H        3.144       1.163      -3.729
  H        5.756      -6.426      -6.911
  H        8.492      -7.638      -2.336
  H        6.595      -4.421      -0.413
  H        6.025      -3.540      -2.652
  H        7.350      -4.833      -5.739
  H        4.467      -5.176      -4.716
  H        3.782      -4.093      -6.771
  H        5.831      -2.191      -6.688
  H        3.618      -1.572      -5.945
  H        3.701      -2.636      -4.534
  P        4.972      -5.327      -8.867
  C        4.614      -7.913      -9.040
  O        5.012      -6.808      -8.262
  O        6.171      -5.345      -9.934
  O        3.678      -4.876      -9.460
  H        7.037      -5.500      -9.525
  H        5.021      -8.824      -8.593
  H        4.983      -7.834     -10.066
  H        3.523      -7.983      -9.049
  H        7.069       1.227      -1.785
  H        7.093      -0.045      -2.983
  H        6.582      -0.393      -1.349

 3  4  5  6  7  8  9  10  11  12  13  24  28  29  30  31  32 0
 6-311+G(2d,p)
 ****
 33  34 0
 6-311+G(2d,p)
 ****
 1  2  14  15  16  17  18  19  20  21  22  23  25  26  27 0
 3-21G
 ****
 35  36  37  38  39  40  41  42  43  44  45 0
 3-21G
 ****


