%nproc=1
%NoSave
%Mem=1900MB
#P OB98/GEN NMR

erre ene a

0 1
  C        7.696     -12.688      25.457
  O        6.518     -12.010      25.842
  P        5.552     -11.324      24.762
  C        6.495      -8.985      25.262
  O        6.312      -9.994      24.281
  C        7.083      -7.713      24.650
  O        8.313      -8.036      23.944
  C        6.157      -6.993      23.660
  O        6.423      -5.595      23.805
  C        6.659      -7.495      22.320
  O        6.265      -6.660      21.239
  C        8.168      -7.567      22.587
  N        8.852      -8.429      21.630
  C        9.029      -7.921      20.341
  O        8.548      -6.829      20.033
  N        9.695      -8.683      19.414
  C       10.058      -9.888      19.720
  N       10.718     -10.595      18.764
  C        9.779     -10.509      21.029
  C        9.192      -9.726      21.932
  O        4.145     -11.117      25.209
  O        5.682     -12.276      23.483
  H        6.835      -6.865      20.467
  H        5.147     -13.099      23.611
  H       10.051     -11.536      21.219
  H        8.949     -10.092      22.919
  H        8.618      -6.567      22.535
  H        6.260      -8.498      22.129
  H        5.098      -7.204      23.818
  H        7.350      -7.036      25.471
  H       10.902     -10.125      17.886
  H        7.192      -9.367      26.013
  H       11.115     -11.507      18.926
  H        5.546      -8.773      25.763
  P        5.362      -4.492      23.332
  C        6.866      -3.227      21.694
  O        5.748      -4.083      21.834
  O        5.183      -3.344      24.271
  O        3.995      -5.310      23.146
  H        3.247      -4.687      23.107
  H        7.201      -3.246      20.654
  H        7.689      -3.548      22.339
  H        6.579      -2.205      21.957
  H        8.189     -13.068      26.327
  H        8.347     -12.010      24.946
  H        7.444     -13.500      24.807

 3  4  5  6  7  8  9  10  11  12  13  23  27  28  29  30  32 0
 6-311+G(2d,p)
 ****
 34  35 0
 6-311+G(2d,p)
 ****
 1  2  14  15  16  17  18  19  20  21  22  24  25  26 0
 3-21G
 ****
 31  33  36  37  38  39  40  41  42  43  44  45  46 0
 3-21G
 ****


