%nproc=1
%NoSave
%Mem=1900MB
#P OB98/GEN NMR

erre ene a

0 1
  C     -892.130     389.156     -42.691
  O     -892.320     388.927     -44.082
  P     -893.080     389.985     -45.004
  C     -895.430     389.346     -44.151
  O     -894.550     389.371     -45.257
  C     -896.700     388.560     -44.471
  O     -897.530     389.289     -45.402
  C     -896.450     387.204     -45.132
  O     -896.010     386.257     -44.171
  C     -897.800     386.930     -45.765
  O     -898.690     386.369     -44.791
  C     -898.280     388.316     -46.193
  N     -898.100     388.578     -47.624
  C     -899.070     388.018     -48.461
  O     -900.000     387.353     -47.979
  N     -898.940     388.194     -49.809
  C     -897.910     388.836     -50.301
  N     -897.870     388.979     -51.666
  C     -896.860     389.415     -49.455
  C     -897.010     389.221     -48.139
  O     -892.340     390.392     -46.245
  O     -893.370     391.185     -43.994
  H     -899.580     386.253     -45.278
  H     -892.550     391.702     -43.800
  H     -896.030     389.930     -49.885
  H     -896.250     389.612     -47.436
  H     -899.320     388.457     -45.944
  H     -897.730     386.198     -46.602
  H     -895.680     387.335     -45.922
  H     -897.270     388.416     -43.530
  H     -898.610     388.527     -52.183
  H     -895.700     390.394     -43.908
  H     -897.110     389.419     -52.122
  H     -894.930     388.927     -43.281
  P     -894.490     385.731     -44.206
  C     -894.840     384.238     -46.273
  O     -894.510     384.255     -44.877
  O     -893.770     385.817     -42.911
  O     -893.800     386.642     -45.322
  H     -892.940     386.942     -44.994
  H     -894.510     383.255     -46.656
  H     -894.360     385.042     -46.810
  H     -895.900     384.278     -46.367
  H     -891.602     388.330     -42.262
  H     -893.082     389.257     -42.213
  H     -891.564     390.053     -42.551

 3  4  5  6  7  8  9  10  11  12  13  23  27  28  29  30  32 0
 6-311+G(2d,p)
 ****
 34  35 0
 6-311+G(2d,p)
 ****
 1  2  14  15  16  17  18  19  20  21  22  24  25  26 0
 3-21G
 ****
 31  33  36  37  38  39  40  41  42  43  44  45  46 0
 3-21G
 ****


