%nproc=1
%NoSave
%Mem=1900MB
#P OB98/GEN NMR

erre ene a

0 1
  C       44.281      -8.645       3.418
  O       45.356      -8.776       2.508
  H       44.655      -8.178       4.333
  H       43.869      -9.626       3.668
  H       43.500      -8.008       2.995
  P       45.078      -9.474       1.093
  C       44.525      -7.194       0.012
  O       44.065      -8.507       0.310
  C       45.094      -7.141      -1.404
  O       44.086      -7.510      -2.365
  C       45.606      -5.764      -1.825
  O       46.909      -5.538      -1.315
  C       45.587      -5.911      -3.337
  O       46.719      -6.696      -3.761
  C       44.286      -6.704      -3.560
  N       42.077      -3.190      -6.483
  C       43.368      -3.682      -6.512
  N       44.197      -3.139      -7.430
  N       43.810      -4.613      -5.706
  C       42.893      -5.012      -4.795
  C       41.591      -4.587      -4.655
  C       41.095      -3.605      -5.597
  O       39.950      -3.160      -5.620
  N       40.993      -5.151      -3.555
  C       41.916      -5.956      -3.064
  N       43.093      -5.902      -3.776
  O       44.636     -10.904       1.142
  O       46.450      -9.296       0.288
  H       46.630      -7.575      -3.347
  H       47.035     -10.065       0.415
  H       41.796      -2.467      -7.123
  H       41.786      -6.600      -2.203
  H       44.363      -7.390      -4.411
  H       45.645      -4.953      -3.857
  H       43.961      -2.321      -7.973
  H       44.908      -4.971      -1.536
  H       45.162      -3.446      -7.427
  H       45.892      -7.892      -1.473
  H       45.299      -6.942       0.744
  H       43.708      -6.472       0.105
  P       47.424      -4.060      -0.950
  C       47.113      -4.362       1.601
  O       46.693      -3.686       0.427
  O       47.259      -3.054      -2.036
  O       48.934      -4.273      -0.477
  H       49.576      -4.287      -1.231
  H       46.542      -4.014       2.437
  H       48.151      -4.168       1.772
  H       46.962      -5.414       1.480

 6  7  8  9  10  11  12  13  14  15  26  29  33  34 0
 6-311+G(2d,p)
 ****
 36  38  39  40  41 0
 6-311+G(2d,p)
 ****
 1  2  3  4  5  16  17  18  19  20  21  22  23  24  25 0
 3-21G
 ****
 27  28  30  31  32  35  37  42  43  44  45  46  47 0
 3-21G
 ****
 48  49 0
 3-21G
 ****


