%nproc=1
%NoSave
%Mem=1900MB
#P OB98/GEN NMR

erre ene a

0 1
  C     -315.554     244.480     217.552
  O     -316.214     243.493     218.319
  H     -315.465     245.389     218.150
  H     -316.133     244.706     216.652
  H     -314.553     244.136     217.275
  P     -316.497     242.093     217.586
  C     -317.987     241.328     215.607
  O     -317.450     242.421     216.337
  C     -319.198     241.769     214.791
  O     -320.333     242.009     215.653
  C     -318.981     243.045     213.984
  O     -318.341     242.762     212.753
  C     -320.414     243.528     213.806
  O     -321.076     242.812     212.742
  C     -321.040     243.183     215.164
  N     -323.725     245.799     218.547
  C     -324.124     244.832     217.649
  N     -325.445     244.531     217.628
  N     -323.309     244.215     216.833
  C     -322.032     244.655     216.921
  C     -321.510     245.608     217.770
  C     -322.416     246.240     218.704
  O     -322.107     247.044     219.581
  N     -320.161     245.761     217.573
  C     -319.878     244.930     216.586
  N     -320.982     244.241     216.156
  O     -317.472     241.330     218.603
  O     -315.291     241.274     217.281
  H     -321.050     241.860     212.932
  H     -317.244     240.382     218.603
  H     -324.390     246.217     219.173
  H     -318.894     244.787     216.161
  H     -322.096     242.903     215.068
  H     -320.449     244.585     213.533
  H     -326.138     245.156     218.006
  H     -318.416     243.786     214.563
  H     -325.743     243.877     216.917
  H     -319.470     240.938     214.129
  H     -318.287     240.545     216.312
  H     -317.217     240.929     214.940
  P     -316.900     243.407     212.481
  C     -316.023     245.591     211.382
  O     -317.122     244.920     211.981
  O     -316.407     242.645     211.161
  O     -315.921     243.236     213.593
  H     -315.727     241.986     211.395
  H     -316.319     246.581     211.102
  H     -315.708     245.054     210.512
  H     -315.214     245.644     212.080

 6  7  8  9  10  11  12  13  14  15  26  29  33  34 0
 6-311+G(2d,p)
 ****
 36  38  39  40  41 0
 6-311+G(2d,p)
 ****
 1  2  3  4  5  16  17  18  19  20  21  22  23  24  25 0
 3-21G
 ****
 27  28  30  31  32  35  37  42  43  44  45  46  47 0
 3-21G
 ****
 48  49 0
 3-21G
 ****


