%nproc=1
%NoSave
%Mem=1900MB
#P OB98/GEN NMR

erre ene a

0 1
  C      -34.788     -88.595     108.642
  O      -35.273     -89.674     109.452
  P      -36.798     -89.623     109.937
  C      -36.725     -88.667     112.355
  O      -36.950     -88.412     110.976
  C      -37.264     -87.511     113.203
  O      -36.417     -86.344     113.115
  C      -38.655     -87.049     112.793
  O      -39.671     -87.865     113.361
  C      -38.698     -85.662     113.416
  O      -38.998     -85.767     114.823
  C      -37.261     -85.169     113.209
  N      -38.703     -80.913     110.888
  C      -39.058     -81.416     112.125
  N      -39.918     -80.672     112.854
  N      -38.610     -82.547     112.603
  C      -37.745     -83.174     111.773
  C      -37.317     -82.778     110.527
  C      -37.832     -81.533     110.001
  O      -37.565     -81.044     108.908
  N      -36.443     -83.683     109.987
  C      -36.322     -84.616     110.912
  N      -37.107     -84.362     112.010
  O      -36.914     -90.913     110.880
  O      -37.797     -89.658     108.829
  H      -39.812     -86.300     114.896
  H      -37.833     -91.240     110.883
  H      -39.082     -80.039     110.566
  H      -35.686     -85.488     110.835
  H      -36.899     -84.569     114.051
  H      -39.474     -85.031     112.974
  H      -40.262     -79.769     112.568
  H      -38.744     -86.975     111.702
  H      -40.163     -81.009     113.776
  H      -37.290     -87.842     114.251
  H      -35.658     -88.802     112.548
  H      -37.198     -89.615     112.623
  P      -40.552     -88.763     112.366
  C      -42.653     -87.254     112.587
  O      -41.651     -87.781     111.741
  O      -41.384     -89.691     113.371
  O      -39.765     -89.570     111.392
  H      -41.560     -90.556     112.956
  H      -43.207     -86.490     112.038
  H      -42.211     -86.797     113.475
  H      -43.348     -88.045     112.885
  H      -33.761     -88.767     108.397
  H      -34.877     -87.676     109.182
  H      -35.364     -88.538     107.742

 3  4  5  6  7  8  9  10  11  12  23  26  30  31 0
 6-311+G(2d,p)
 ****
 33  35  36  37  38 0
 6-311+G(2d,p)
 ****
 1  2  13  14  15  16  17  18  19  20  21  22  24  25 0
 3-21G
 ****
 27  28  29  32  34  39  40  41  42  43  44  45  46  47  48  49 0
 3-21G
 ****


