%nproc=1
%NoSave
%Mem=1900MB
#P OB98/GEN NMR

erre ene a

0 1
  C     -150.312     155.163    -194.823
  O     -150.155     155.997    -195.953
  H     -149.947     154.162    -195.075
  H     -151.368     155.092    -194.557
  H     -149.736     155.540    -193.973
  P     -150.357     157.579    -195.777
  C     -151.639     157.815    -198.003
  O     -150.492     158.191    -197.257
  C     -151.339     157.843    -199.507
  O     -151.154     159.231    -199.917
  C     -150.061     157.073    -199.905
  O     -150.279     156.543    -201.222
  C     -149.044     158.197    -199.932
  O     -147.854     157.812    -200.577
  C     -149.879     159.298    -200.588
  N     -149.286     160.626    -200.481
  C     -149.804     161.625    -201.300
  O     -150.735     161.455    -202.080
  N     -149.199     162.850    -201.198
  C     -148.148     163.156    -200.382
  O     -147.653     164.278    -200.316
  C     -147.624     162.052    -199.563
  C     -148.212     160.853    -199.646
  O     -149.368     158.267    -194.900
  O     -151.850     157.708    -195.201
  H     -151.813     157.808    -194.231
  H     -147.295     157.279    -199.968
  H     -149.556     163.588    -201.783
  H     -146.781     162.259    -198.919
  H     -147.852     160.014    -199.058
  H     -150.058     159.069    -201.646
  H     -148.765     158.481    -198.909
  H     -149.819     156.262    -199.216
  H     -152.213     157.463    -200.051
  H     -152.443     158.520    -197.777
  H     -151.951     156.806    -197.706
  P     -151.323     155.363    -201.535
  C     -149.680     153.625    -202.494
  O     -150.779     154.482    -202.761
  O     -152.727     155.845    -201.727
  O     -151.241     154.371    -200.281
  H     -152.124     154.009    -200.100
  H     -149.415     153.097    -203.386
  H     -149.951     152.925    -201.732
  H     -148.846     154.207    -202.163

 6  7  8  9  10  11  12  13  14  15  16  27  31  32  33  34  35 0
 6-311+G(2d,p)
 ****
 36  37 0
 6-311+G(2d,p)
 ****
 1  2  3  4  5  17  18  19  20  21  22  23  24  25 0
 3-21G
 ****
 26  28  29  30  38  39  40  41  42  43  44  45 0
 3-21G
 ****


