%nproc=1
%NoSave
%Mem=1900MB
#P OB98/GEN NMR

erre ene a

0 1
  C     -891.340     989.596    -141.188
  O     -891.930     990.158    -140.023
  P     -891.460     989.592    -138.589
  C     -892.610     991.613    -137.443
  O     -892.480     990.201    -137.523
  C     -894.060     992.051    -137.582
  O     -894.830     991.619    -136.441
  C     -894.270     993.553    -137.671
  O     -894.060     994.049    -138.991
  C     -895.750     993.654    -137.323
  O     -896.560     993.308    -138.441
  C     -895.880     992.580    -136.224
  N     -898.540     994.228    -132.159
  C     -898.930     993.822    -133.396
  N     -898.160     993.423    -134.411
  C     -896.850     993.483    -134.102
  C     -896.300     993.901    -132.891
  C     -897.200     994.272    -131.884
  N     -896.780     994.677    -130.623
  N     -894.930     993.833    -132.953
  C     -894.650     993.365    -134.155
  N     -895.780     993.115    -134.879
  O     -890.120     990.401    -138.315
  O     -891.250     988.121    -138.541
  H     -896.240     993.843    -139.200
  H     -889.540     989.919    -137.689
  H     -900.000     993.832    -133.565
  H     -893.650     993.181    -134.515
  H     -896.840     992.045    -136.284
  H     -896.050     994.656    -136.993
  H     -893.670     994.085    -136.930
  H     -894.470     991.550    -138.480
  H     -892.010     992.086    -138.228
  H     -897.490     994.746    -129.898
  H     -895.820     994.528    -130.361
  H     -892.210     991.943    -136.460
  P     -893.310     995.480    -139.098
  C     -893.220     994.950    -141.647
  O     -893.470     995.907    -140.631
  O     -891.760     995.075    -138.964
  O     -893.740     996.463    -138.079
  H     -891.230     995.830    -138.611
  H     -893.650     995.288    -142.573
  H     -893.640     993.968    -141.400
  H     -892.120     994.825    -141.782
  H     -891.748     990.068    -142.057
  H     -891.547     988.547    -141.222
  H     -890.281     989.750    -141.162

 3  4  5  6  7  8  9  10  11  12  22  25  29  30  31  32 0
 6-311+G(2d,p)
 ****
 33  36  37 0
 6-311+G(2d,p)
 ****
 1  2  13  14  15  16  17  18  19  20  21  23  24  26 0
 3-21G
 ****
 27  28  34  35  38  39  40  41  42  43  44  45  46  47  48 0
 3-21G
 ****


