%nproc=1
%NoSave
%Mem=1900MB
#P OB98/GEN NMR

erre ene a

0 1
  C     -108.917    -123.615      98.349
  O     -108.030    -124.474      99.045
  P     -108.274    -126.054      98.911
  C     -105.850    -126.573      98.116
  O     -106.842    -126.738      99.128
  C     -104.453    -126.741      98.705
  O     -104.212    -125.725      99.701
  C     -104.233    -128.067      99.411
  O     -104.016    -129.101      98.469
  C     -103.017    -127.754     100.271
  O     -101.798    -127.956      99.537
  C     -103.216    -126.257     100.605
  N     -103.591    -126.035     101.993
  C     -102.628    -126.394     102.946
  O     -101.553    -126.880     102.589
  N     -102.925    -126.228     104.276
  C     -104.082    -125.755     104.623
  N     -104.322    -125.607     105.953
  C     -105.131    -125.386     103.649
  C     -104.822    -125.555     102.366
  O     -108.547    -126.249      97.345
  O     -109.385    -126.588      99.752
  H     -101.106    -127.471     100.032
  H     -109.094    -127.037      97.185
  H     -106.077    -124.994     103.992
  H     -105.535    -125.311     101.586
  H     -102.294    -125.696     100.407
  H     -102.965    -128.393     101.155
  H     -105.089    -128.310     100.053
  H     -103.721    -126.606      97.897
  H     -103.587    -125.875     106.596
  H     -105.935    -125.570      97.689
  H     -105.181    -125.225     106.325
  H     -106.030    -127.307      97.323
  P     -104.206    -130.611      98.970
  C     -106.740    -130.207      98.893
  O     -105.668    -131.032      98.468
  O     -104.430    -130.421     100.543
  O     -103.101    -131.571      98.668
  H     -104.460    -131.295     100.985
  H     -107.645    -130.506      98.361
  H     -106.526    -129.160      98.670
  H     -106.902    -130.336      99.968
  H     -108.640    -122.597      98.526
  H     -109.916    -123.778      98.695
  H     -108.865    -123.822      97.301

 3  4  5  6  7  8  9  10  11  12  13  21  23  27  28  29  30  32 0
 6-311+G(2d,p)
 ****
 34  35 0
 6-311+G(2d,p)
 ****
 1  2  14  15  16  17  18  19  20  22  24  25  26 0
 3-21G
 ****
 31  33  36  37  38  39  40  41  42  43  44  45  46 0
 3-21G
 ****


