%nproc=1
%NoSave
%Mem=1900MB
#P OB98/GEN NMR

erre ene a

0 1
  C      118.875    -222.374    -635.161
  O      117.620    -222.791    -635.659
  H      119.170    -221.455    -635.666
  H      119.634    -223.139    -635.353
  H      118.806    -222.185    -634.084
  P      117.063    -224.199    -635.121
  C      114.649    -225.186    -635.236
  O      115.467    -224.024    -635.191
  C      113.295    -224.898    -634.598
  O      113.440    -224.633    -633.188
  C      112.576    -223.670    -635.161
  O      111.960    -223.909    -636.417
  C      111.554    -223.442    -634.063
  O      110.507    -224.419    -634.155
  C      112.424    -223.666    -632.803
  N      113.043    -222.432    -632.308
  C      112.358    -221.743    -631.301
  O      111.276    -222.163    -630.874
  N      112.886    -220.562    -630.829
  C      114.015    -220.129    -631.300
  N      114.485    -218.953    -630.794
  C      114.780    -220.832    -632.346
  C      114.250    -221.964    -632.803
  O      117.356    -224.135    -633.543
  O      117.593    -225.419    -635.795
  H      110.099    -224.311    -635.035
  H      116.916    -224.898    -633.092
  H      115.704    -220.411    -632.710
  H      114.757    -222.535    -633.565
  H      111.840    -224.110    -631.993
  H      111.079    -222.454    -634.114
  H      113.242    -222.803    -635.221
  H      112.678    -225.802    -634.702
  H      113.907    -218.465    -630.121
  H      115.158    -225.994    -634.691
  H      115.273    -218.457    -631.193
  H      114.498    -225.505    -636.276
  P      111.603    -222.628    -637.319
  C      111.270    -222.257    -639.871
  O      111.840    -223.051    -638.850
  O      112.818    -221.629    -637.025
  O      110.274    -221.999    -637.028
  H      112.520    -220.696    -637.039
  H      111.519    -222.671    -640.826
  H      111.653    -221.260    -639.803
  H      110.206    -222.239    -639.757

 6  7  8  9  10  11  12  13  14  15  16  26  30  31  32  33  35 0
 6-311+G(2d,p)
 ****
 37  38 0
 6-311+G(2d,p)
 ****
 1  2  3  4  5  17  18  19  20  21  22  23  24  25 0
 3-21G
 ****
 27  28  29  34  36  39  40  41  42  43  44  45  46 0
 3-21G
 ****


