%nproc=1
%NoSave
%Mem=1900MB
#P OB98/GEN NMR

erre ene a

0 1
  C        5.311    -135.810     685.208
  O        5.122    -135.104     686.424
  P        3.991    -135.664     687.423
  C        2.177    -134.891     685.716
  O        2.642    -134.889     687.056
  C        0.853    -134.127     685.627
  O       -0.174    -134.822     686.364
  C        0.908    -132.714     686.199
  O        1.456    -131.817     685.254
  C       -0.561    -132.459     686.510
  O       -1.279    -132.067     685.323
  C       -1.032    -133.836     687.005
  N       -3.477    -132.966     691.345
  C       -3.745    -132.511     690.063
  N       -4.853    -131.750     689.917
  N       -2.999    -132.780     689.025
  C       -1.919    -133.538     689.324
  C       -1.539    -134.038     690.553
  C       -2.402    -133.778     691.678
  O       -2.262    -134.236     692.810
  N       -0.368    -134.746     690.465
  C       -0.061    -134.704     689.184
  N       -0.977    -134.002     688.446
  O        4.427    -135.050     688.833
  O        3.861    -137.154     687.459
  H       -1.242    -132.793     684.670
  H        4.913    -135.710     689.362
  H       -4.100    -132.741     692.098
  H        0.799    -135.178     688.742
  H       -2.061    -134.057     686.696
  H       -0.695    -131.650     687.239
  H       -5.459    -131.482     690.677
  H        1.488    -132.700     687.130
  H       -5.062    -131.405     688.987
  H        0.548    -134.104     684.572
  H        2.021    -135.922     685.389
  H        2.934    -134.427     685.071
  P        2.853    -131.119     685.618
  C        1.632    -129.316     687.028
  O        2.538    -129.591     685.983
  O        3.604    -131.033     684.208
  O        3.670    -131.861     686.623
  H        4.562    -131.169     684.337
  H        1.907    -128.362     687.494
  H        1.641    -130.100     687.796
  H        0.621    -129.228     686.617
  H        6.085    -135.339     684.639
  H        4.400    -135.803     684.646
  H        5.590    -136.821     685.422

 3  4  5  6  7  8  9  10  11  12  23  26  30  31 0
 6-311+G(2d,p)
 ****
 33  35  36  37  38 0
 6-311+G(2d,p)
 ****
 1  2  13  14  15  16  17  18  19  20  21  22  24  25 0
 3-21G
 ****
 27  28  29  32  34  39  40  41  42  43  44  45  46  47  48  49 0
 3-21G
 ****


