%nproc=1
%NoSave
%Mem=1900MB
#P OB98/GEN NMR

erre ene a

0 1
  C        0.171      80.107     -14.628
  O        1.239      80.536     -13.802
  P        1.929      81.941     -14.163
  C        3.719      82.739     -15.879
  O        2.890      81.678     -15.418
  C        4.691      82.225     -16.936
  O        5.690      81.384     -16.327
  C        4.051      81.372     -18.024
  O        3.344      82.175     -18.955
  C        5.282      80.673     -18.591
  O        5.989      81.559     -19.473
  C        6.115      80.415     -17.323
  N        8.494      76.224     -15.593
  C        8.967      77.389     -16.091
  N        8.270      78.448     -16.551
  C        6.949      78.226     -16.456
  C        6.323      77.083     -15.992
  C        7.153      76.046     -15.541
  N        6.668      74.857     -15.038
  N        4.951      77.210     -16.066
  C        4.754      78.415     -16.558
  N        5.929      79.075     -16.795
  O        2.949      82.167     -12.955
  O        0.978      83.088     -14.317
  H        5.393      81.760     -20.223
  H        3.032      83.117     -12.739
  H       10.049      77.483     -16.122
  H        3.785      78.855     -16.752
  H        7.188      80.560     -17.488
  H        5.040      79.767     -19.157
  H        3.372      80.633     -17.581
  H        5.197      83.093     -17.381
  H        4.293      83.145     -15.039
  H        7.330      74.113     -14.878
  H        5.678      74.672     -15.131
  H        3.085      83.535     -16.280
  P        1.945      81.607     -19.500
  C        1.283      79.472     -20.766
  O        2.353      80.260     -20.274
  O        1.631      82.617     -20.698
  O        0.878      81.468     -18.469
  H        2.399      82.739     -21.284
  H        1.698      78.622     -21.311
  H        0.661      80.062     -21.445
  H        0.679      79.099     -19.934
  H       -0.194      79.164     -14.278
  H        0.518      80.004     -15.635
  H       -0.618      80.829     -14.595

 3  4  5  6  7  8  9  10  11  12  22  25  29  30  31  32 0
 6-311+G(2d,p)
 ****
 33  36  37 0
 6-311+G(2d,p)
 ****
 1  2  13  14  15  16  17  18  19  20  21  23  24  26 0
 3-21G
 ****
 27  28  34  35  38  39  40  41  42  43  44  45  46  47  48 0
 3-21G
 ****


