%nproc=1
%NoSave
%Mem=1900MB
#P OB98/GEN NMR

erre ene a

0 1
  C      507.397    1214.764     336.371
  O      506.397    1213.814     336.685
  P      504.944    1213.891     336.017
  C      503.733    1212.428     337.848
  O      504.101    1212.630     336.491
  C      502.378    1211.723     337.907
  O      501.327    1212.614     337.441
  C      502.362    1210.479     337.033
  O      502.675    1209.321     337.824
  C      500.948    1210.469     336.497
  O      500.030    1209.918     337.474
  C      500.674    1211.984     336.306
  N      501.177    1212.626     335.068
  C      500.770    1213.916     334.760
  O      500.035    1214.599     335.464
  N      501.252    1214.412     333.560
  C      502.095    1213.760     332.711
  O      502.299    1214.109     331.552
  C      502.685    1212.527     333.229
  C      502.198    1212.011     334.345
  O      505.237    1213.596     334.474
  O      504.225    1215.182     336.210
  H      500.367    1209.051     337.722
  H      505.274    1214.409     333.964
  H      500.849    1215.301     333.265
  H      503.467    1212.055     332.644
  H      502.599    1211.081     334.738
  H      499.604    1212.202     336.379
  H      500.874    1209.837     335.617
  H      503.056    1210.590     336.201
  H      502.156    1211.475     338.958
  H      503.684    1213.414     338.350
  H      504.497    1211.854     338.366
  P      504.081    1208.588     337.592
  C      502.643    1206.550     338.200
  O      503.919    1207.146     338.288
  O      505.292    1209.373     338.015
  O      504.092    1208.286     336.025
  H      504.611    1208.963     335.560
  H      502.713    1205.517     338.559
  H      502.297    1206.563     337.159
  H      501.936    1207.090     338.839
  H      508.288    1214.538     336.919
  H      507.055    1215.743     336.635
  H      507.605    1214.730     335.322

 3  4  5  6  7  8  9  10  11  12  13  23  28  29  30  31  32 0
 6-311+G(2d,p)
 ****
 33  34 0
 6-311+G(2d,p)
 ****
 1  2  14  15  16  17  18  19  20  21  22  24  25  26  27 0
 3-21G
 ****
 35  36  37  38  39  40  41  42  43  44  45 0
 3-21G
 ****


