%nproc=1
%NoSave
%Mem=1900MB
#P OB98/GEN NMR

erre ene a

0 1
  C      561.122     551.626     542.550
  O      560.989     551.533     543.955
  H      561.786     550.834     542.185
  H      560.140     551.499     542.088
  H      561.524     552.604     542.271
  P      562.336     551.657     544.819
  C      564.537     550.273     544.734
  O      563.429     550.795     544.017
  C      564.967     548.948     544.109
  O      563.923     547.952     544.297
  C      565.204     549.021     542.611
  O      566.489     549.531     542.284
  C      565.063     547.555     542.226
  O      566.267     546.852     542.582
  C      563.885     547.112     543.107
  N      561.038     545.768     539.070
  C      562.283     545.408     539.454
  N      562.972     545.792     540.550
  C      562.224     546.637     541.297
  C      560.943     547.081     541.038
  C      560.344     546.620     539.854
  N      559.086     547.007     539.447
  N      560.520     547.956     542.025
  C      561.526     548.006     542.876
  N      562.595     547.252     542.477
  O      562.042     550.752     546.108
  O      562.767     553.038     545.167
  H      566.182     545.938     542.233
  H      562.701     550.929     546.809
  H      562.805     544.715     538.797
  H      561.535     548.585     543.802
  H      563.989     546.061     543.436
  H      564.923     547.414     541.149
  H      564.409     549.592     542.103
  H      565.864     548.585     544.634
  H      564.239     550.108     545.776
  H      558.804     546.741     538.515
  H      558.618     547.752     539.943
  H      565.365     550.981     544.699
  P      566.725     550.041     540.778
  C      567.006     548.880     538.454
  O      566.887     548.709     539.871
  O      568.206     550.637     540.831
  O      565.727     551.035     540.293
  H      568.299     551.382     540.211
  H      567.106     547.923     537.986
  H      567.869     549.474     538.238
  H      566.132     549.371     538.079

 6  7  8  9  10  11  12  13  14  15  25  28  32  33  34  35 0
 6-311+G(2d,p)
 ****
 36  39  40 0
 6-311+G(2d,p)
 ****
 1  2  3  4  5  16  17  18  19  20  21  22  23  24 0
 3-21G
 ****
 26  27  29  30  31  37  38  41  42  43  44  45  46  47 0
 3-21G
 ****
 48 0
 3-21G
 ****


