%nproc=1
%NoSave
%Mem=1900MB
#P OB98/GEN NMR

erre ene a

0 1
  C      373.985     723.796     233.574
  O      373.228     722.928     232.760
  H      373.468     724.759     233.637
  H      374.969     723.956     233.123
  H      374.104     723.396     234.584
  P      373.498     721.352     232.857
  C      371.377     720.752     234.205
  O      372.794     720.815     234.205
  C      370.864     719.346     233.877
  O      371.399     718.403     234.825
  C      369.342     719.241     233.939
  O      368.676     719.591     232.742
  C      369.146     717.761     234.262
  O      369.086     716.963     233.067
  C      370.397     717.405     235.079
  N      367.685     715.198     238.813
  C      367.496     715.119     237.449
  N      366.436     714.398     237.036
  N      368.274     715.716     236.584
  C      369.240     716.481     237.141
  C      369.515     716.646     238.492
  C      368.695     715.925     239.435
  O      368.829     715.946     240.658
  N      370.537     717.537     238.685
  C      370.828     717.967     237.479
  N      370.121     717.305     236.501
  O      375.055     721.257     233.221
  O      373.191     720.564     231.621
  H      368.433     717.375     232.463
  H      375.430     720.441     232.842
  H      367.084     714.695     239.434
  H      371.569     718.725     237.237
  H      370.823     716.442     234.768
  H      368.203     717.596     234.794
  H      365.760     713.988     237.661
  H      368.953     719.828     234.773
  H      366.147     714.481     236.055
  H      371.245     719.057     232.885
  H      371.028     721.464     233.453
  H      370.977     721.081     235.177
  P      367.451     720.615     232.749
  C      368.665     722.512     231.391
  O      368.031     722.092     232.580
  O      366.964     720.586     234.273
  O      366.339     720.310     231.790
  H      366.190     719.998     234.371
  H      368.975     723.531     231.493
  H      367.981     722.428     230.573
  H      369.520     721.896     231.206

 6  7  8  9  10  11  12  13  14  15  26  29  33  34 0
 6-311+G(2d,p)
 ****
 36  38  39  40  41 0
 6-311+G(2d,p)
 ****
 1  2  3  4  5  16  17  18  19  20  21  22  23  24  25 0
 3-21G
 ****
 27  28  30  31  32  35  37  42  43  44  45  46  47 0
 3-21G
 ****
 48  49 0
 3-21G
 ****


