%nproc=1
%NoSave
%Mem=1900MB
#P OB98/GEN NMR

erre ene a

0 1
  C      753.573    -511.850    -398.903
  O      752.551    -510.979    -399.366
  H      754.501    -511.627    -399.425
  H      753.274    -512.882    -399.140
  H      753.722    -511.742    -397.829
  P      751.225    -510.857    -398.485
  C      749.121    -509.365    -398.822
  O      750.099    -510.188    -399.431
  C      748.478    -508.442    -399.858
  O      749.490    -507.555    -400.402
  C      747.843    -509.181    -401.043
  O      746.635    -508.496    -401.440
  C      748.863    -509.022    -402.139
  O      748.294    -509.157    -403.445
  C      749.383    -507.622    -401.826
  N      752.540    -503.973    -403.205
  C      751.439    -503.939    -402.390
  N      751.069    -502.727    -401.898
  N      750.742    -504.996    -402.061
  C      751.215    -506.138    -402.609
  C      752.291    -506.305    -403.443
  C      753.054    -505.123    -403.802
  O      754.036    -505.072    -404.559
  N      752.426    -507.622    -403.834
  C      751.406    -508.246    -403.239
  N      750.657    -507.370    -402.496
  O      751.588    -509.689    -397.444
  O      750.801    -512.106    -397.784
  H      747.567    -508.511    -403.508
  H      751.923    -510.073    -396.618
  H      753.028    -503.110    -403.442
  H      751.173    -509.285    -403.354
  H      748.688    -506.831    -402.160
  H      749.642    -509.769    -402.031
  H      751.570    -501.866    -402.067
  H      747.602    -510.235    -400.833
  H      750.286    -502.693    -401.258
  H      747.734    -507.811    -399.346
  H      749.608    -508.746    -398.046
  H      748.359    -509.999    -398.338
  P      745.221    -509.039    -400.902
  C      742.755    -508.252    -401.146
  O      744.049    -508.373    -401.741
  O      745.096    -508.347    -399.446
  O      745.161    -510.518    -400.767
  H      744.645    -508.937    -398.847
  H      742.086    -507.786    -401.839
  H      742.824    -507.656    -400.260
  H      742.386    -509.224    -400.894

 6  7  8  9  10  11  12  13  14  15  26  29  33  34 0
 6-311+G(2d,p)
 ****
 36  38  39  40  41 0
 6-311+G(2d,p)
 ****
 1  2  3  4  5  16  17  18  19  20  21  22  23  24  25 0
 3-21G
 ****
 27  28  30  31  32  35  37  42  43  44  45  46  47 0
 3-21G
 ****
 48  49 0
 3-21G
 ****


