%nproc=1
%NoSave
%Mem=1900MB
#P OB98/GEN NMR

erre ene a

0 1
  C     -379.056     -76.171    -286.404
  O     -378.299     -76.379    -287.581
  H     -379.513     -75.178    -286.423
  H     -379.846     -76.924    -286.357
  H     -378.418     -76.270    -285.521
  P     -377.091     -75.350    -287.839
  C     -376.802     -73.131    -289.140
  O     -377.710     -74.101    -288.642
  C     -377.391     -72.445    -290.371
  O     -377.322     -73.376    -291.483
  C     -378.857     -72.003    -290.205
  O     -379.022     -70.635    -290.601
  C     -379.621     -72.885    -291.180
  O     -380.733     -72.225    -291.770
  C     -378.555     -73.249    -292.207
  N     -381.948     -75.480    -295.293
  C     -381.675     -74.184    -295.061
  N     -380.696     -73.651    -294.301
  C     -379.925     -74.623    -293.770
  C     -380.068     -75.992    -293.936
  C     -381.152     -76.423    -294.720
  N     -381.464     -77.747    -294.916
  N     -379.092     -76.676    -293.231
  C     -378.403     -75.733    -292.614
  N     -378.877     -74.479    -292.899
  O     -376.199     -76.101    -288.939
  O     -376.294     -75.012    -286.624
  H     -381.157     -72.856    -292.385
  H     -375.311     -76.264    -288.566
  H     -382.337     -73.466    -295.546
  H     -377.588     -75.907    -291.922
  H     -378.424     -72.458    -292.955
  H     -379.984     -73.775    -290.651
  H     -379.219     -72.134    -289.182
  H     -376.760     -71.585    -290.630
  H     -375.859     -73.617    -289.418
  H     -382.323     -77.964    -295.395
  H     -380.939     -78.448    -294.404
  H     -376.597     -72.393    -288.355
  P     -379.640     -69.646    -289.491
  C     -381.958     -68.583    -288.978
  O     -381.198     -69.427    -289.835
  O     -378.961     -68.237    -289.840
  O     -379.348     -70.060    -288.088
  H     -378.496     -67.897    -289.059
  H     -382.967     -68.534    -289.330
  H     -381.533     -67.601    -288.976
  H     -381.945     -68.979    -287.984

 6  7  8  9  10  11  12  13  14  15  25  28  32  33  34  35 0
 6-311+G(2d,p)
 ****
 36  39  40 0
 6-311+G(2d,p)
 ****
 1  2  3  4  5  16  17  18  19  20  21  22  23  24 0
 3-21G
 ****
 26  27  29  30  31  37  38  41  42  43  44  45  46  47  48 0
 3-21G
 ****


