%nproc=1
%NoSave
%Mem=1900MB
#P OB98/GEN NMR

erre ene a

0 1
  C      327.085     451.568     -24.781
  O      328.323     452.156     -25.112
  H      326.525     452.260     -24.146
  H      327.257     450.642     -24.225
  H      326.491     451.354     -25.675
  P      329.136     451.591     -26.369
  C      328.838     453.807     -27.659
  O      328.658     452.398     -27.674
  C      330.237     454.205     -28.127
  O      330.489     453.639     -29.435
  C      330.404     455.721     -28.261
  O      330.794     456.375     -27.067
  C      331.492     455.826     -29.325
  O      332.803     455.795     -28.738
  C      331.264     454.579     -30.193
  N      331.744     455.512     -35.197
  C      332.729     455.425     -34.235
  N      333.992     455.654     -34.660
  N      332.488     455.160     -32.977
  C      331.171     455.052     -32.687
  C      330.099     455.135     -33.555
  C      330.382     455.360     -34.953
  O      329.545     455.423     -35.848
  N      328.905     455.020     -32.890
  C      329.251     454.954     -31.620
  N      330.615     454.887     -31.453
  O      328.492     450.141     -26.605
  O      330.617     451.488     -26.184
  H      333.458     455.716     -29.461
  H      329.168     449.539     -26.965
  H      331.989     455.688     -36.154
  H      328.559     454.899     -30.786
  H      332.212     454.084     -30.438
  H      331.416     456.768     -29.873
  H      334.223     455.945     -35.595
  H      329.492     456.178     -28.658
  H      334.722     455.793     -33.952
  H      330.982     453.778     -27.446
  H      328.686     454.131     -26.627
  H      328.073     454.295     -28.270
  P      330.689     457.961     -26.929
  C      328.672     457.997     -25.241
  O      329.193     458.336     -26.510
  O      330.784     458.462     -28.447
  O      331.724     458.605     -26.057
  H      331.691     458.763     -28.652
  H      327.661     458.338     -25.168
  H      329.261     458.461     -24.478
  H      328.700     456.935     -25.116

 6  7  8  9  10  11  12  13  14  15  26  29  33  34 0
 6-311+G(2d,p)
 ****
 36  38  39  40  41 0
 6-311+G(2d,p)
 ****
 1  2  3  4  5  16  17  18  19  20  21  22  23  24  25 0
 3-21G
 ****
 27  28  30  31  32  35  37  42  43  44  45  46  47 0
 3-21G
 ****
 48  49 0
 3-21G
 ****


