%nproc=1
%NoSave
%Mem=1900MB
#P OB98/GEN NMR

erre ene a

0 1
  C      348.961     -35.905     331.213
  O      350.122     -35.281     330.698
  H      349.007     -36.972     330.981
  H      348.064     -35.479     330.753
  H      348.919     -35.779     332.298
  P      350.233     -33.693     330.904
  C      352.752     -34.166     331.172
  O      351.764     -33.354     330.550
  C      353.709     -34.740     330.125
  O      353.034     -35.816     329.426
  C      354.155     -33.713     329.082
  O      355.525     -33.942     328.754
  C      353.284     -34.027     327.877
  O      353.884     -33.616     326.651
  C      353.094     -35.537     328.015
  N      351.210     -37.475     323.689
  C      352.475     -37.257     324.105
  N      352.891     -36.746     325.287
  C      351.842     -36.504     326.093
  C      350.499     -36.673     325.808
  C      350.192     -37.180     324.532
  N      348.904     -37.381     324.093
  N      349.723     -36.267     326.875
  C      350.585     -35.872     327.796
  N      351.876     -35.981     327.360
  O      349.749     -33.175     332.215
  O      349.453     -33.145     329.618
  H      353.968     -32.640     326.665
  H      349.702     -33.634     328.814
  H      353.256     -37.515     323.396
  H      350.325     -35.490     328.777
  H      353.927     -36.106     327.581
  H      352.320     -33.508     327.973
  H      354.025     -32.685     329.421
  H      354.568     -35.184     330.641
  H      352.274     -34.986     331.721
  H      348.771     -37.763     323.168
  H      348.132     -37.185     324.711
  H      353.299     -33.545     331.887
  P      356.518     -32.686     328.713
  C      358.253     -32.713     330.628
  O      357.942     -33.143     329.304
  O      355.980     -31.407     329.255
  O      356.839     -32.551     327.144
  H      356.902     -31.603     326.917
  H      359.220     -33.079     330.904
  H      357.520     -33.094     331.308
  H      358.252     -31.644     330.665

 6  7  8  9  10  11  12  13  14  15  25  28  32  33  34  35 0
 6-311+G(2d,p)
 ****
 36  39  40 0
 6-311+G(2d,p)
 ****
 1  2  3  4  5  16  17  18  19  20  21  22  23  24 0
 3-21G
 ****
 26  27  29  30  31  37  38  41  42  43  44  45  46  47 0
 3-21G
 ****
 48 0
 3-21G
 ****


