%nproc=1
%NoSave
%Mem=1900MB
#P OB98/GEN NMR

erre ene a

0 1
  C      130.398     506.935     361.395
  O      130.740     506.595     362.724
  H      131.043     506.395     360.696
  H      129.358     506.635     361.211
  H      130.492     508.010     361.235
  P      132.110     507.200     363.308
  C      133.805     505.236     363.171
  O      133.309     506.419     362.565
  C      135.125     504.818     362.516
  O      134.851     504.383     361.162
  C      136.180     505.938     362.457
  O      137.472     505.364     362.711
  C      136.117     506.394     361.009
  O      137.343     506.989     360.571
  C      135.781     505.094     360.303
  N      136.819     506.746     355.609
  C      137.619     506.330     356.611
  N      137.255     505.854     357.817
  C      135.908     505.753     357.911
  C      134.965     506.130     356.964
  C      135.468     506.669     355.768
  N      134.667     507.148     354.766
  N      133.688     505.930     357.462
  C      133.855     505.460     358.676
  N      135.190     505.343     358.996
  O      132.141     506.602     364.794
  O      132.209     508.688     363.301
  H      137.549     507.738     361.173
  H      131.662     507.197     365.396
  H      138.688     506.410     356.436
  H      133.077     505.233     359.379
  H      136.657     504.445     360.141
  H      135.309     507.126     360.887
  H      135.995     506.762     363.160
  H      135.516     503.946     363.061
  H      133.066     504.428     363.035
  H      135.115     507.621     353.984
  H      133.670     507.203     354.916
  H      133.943     505.405     364.245
  P      137.933     505.236     364.244
  C      138.973     507.622     364.369
  O      138.015     506.713     364.879
  O      139.471     504.805     364.119
  O      137.139     504.247     365.035
  H      139.718     504.222     364.869
  H      138.898     508.551     364.894
  H      138.791     507.785     363.327
  H      139.955     507.217     364.500

 6  7  8  9  10  11  12  13  14  15  25  28  32  33  34  35 0
 6-311+G(2d,p)
 ****
 36  39  40 0
 6-311+G(2d,p)
 ****
 1  2  3  4  5  16  17  18  19  20  21  22  23  24 0
 3-21G
 ****
 26  27  29  30  31  37  38  41  42  43  44  45  46  47 0
 3-21G
 ****
 48 0
 3-21G
 ****


