%nproc=1
%NoSave
%Mem=1900MB
#P OB98/GEN NMR

erre ene a

0 1
  C     -608.931     614.967     256.680
  O     -607.537     615.136     256.620
  P     -606.830     616.557     256.604
  C     -606.305     616.331     259.168
  O     -606.801     617.145     258.095
  C     -605.008     616.917     259.756
  O     -605.273     618.275     260.182
  C     -604.555     616.118     260.996
  O     -603.146     615.904     261.032
  C     -605.177     616.898     262.148
  O     -604.550     616.651     263.405
  C     -605.121     618.335     261.623
  N     -606.910     620.640     265.782
  C     -605.708     620.002     265.608
  N     -604.975     619.759     266.712
  N     -605.283     619.573     264.444
  C     -606.180     619.740     263.437
  C     -607.395     620.390     263.502
  C     -607.851     620.876     264.774
  O     -608.941     621.374     265.004
  N     -608.054     620.324     262.289
  C     -607.247     619.629     261.508
  N     -606.115     619.232     262.170
  O     -607.206     617.487     255.497
  O     -605.275     616.140     256.388
  H     -604.525     615.684     263.513
  H     -604.871     616.835     255.845
  H     -607.215     620.878     266.732
  H     -607.441     619.377     260.485
  H     -604.141     618.793     261.831
  H     -606.220     616.561     262.228
  H     -605.358     619.949     267.622
  H     -604.958     615.112     260.964
  H     -604.235     619.084     266.665
  H     -604.239     616.962     258.961
  H     -606.110     615.352     258.728
  H     -607.061     616.218     259.934
  P     -602.342     614.621     261.549
  C     -602.380     613.363     259.306
  O     -602.796     613.360     260.654
  O     -602.962     614.286     262.981
  O     -600.863     614.796     261.665
  H     -602.265     613.992     263.592
  H     -602.973     612.621     258.746
  H     -601.333     613.110     259.237
  H     -602.546     614.354     258.855
  H     -609.164     613.923     256.679
  H     -609.384     615.434     255.831
  H     -609.306     615.415     257.576

 3  4  5  6  7  8  9  10  11  12  23  26  30  31 0
 6-311+G(2d,p)
 ****
 33  35  36  37  38 0
 6-311+G(2d,p)
 ****
 1  2  13  14  15  16  17  18  19  20  21  22  24  25 0
 3-21G
 ****
 27  28  29  32  34  39  40  41  42  43  44  45  46  47  48  49 0
 3-21G
 ****


