%nproc=1
%NoSave
%Mem=1900MB
#P OB98/GEN NMR

erre ene a

0 1
  C     -114.195    -151.308    -123.789
  O     -115.079    -152.349    -123.431
  H     -114.476    -150.931    -124.777
  H     -113.171    -151.685    -123.834
  H     -114.260    -150.490    -123.067
  P     -114.837    -153.047    -122.008
  C     -117.200    -153.375    -120.990
  O     -116.135    -153.956    -121.728
  C     -118.122    -152.583    -121.919
  O     -118.712    -153.494    -122.886
  C     -119.271    -151.870    -121.192
  O     -119.499    -150.604    -121.820
  C     -120.460    -152.775    -121.462
  O     -121.699    -152.083    -121.348
  C     -120.133    -153.259    -122.871
  N     -124.638    -154.949    -124.341
  C     -124.193    -153.661    -124.117
  N     -125.086    -152.665    -124.309
  N     -122.978    -153.373    -123.734
  C     -122.184    -154.463    -123.604
  C     -122.505    -155.786    -123.784
  C     -123.861    -156.095    -124.187
  O     -124.321    -157.216    -124.378
  N     -121.430    -156.596    -123.518
  C     -120.461    -155.764    -123.180
  N     -120.871    -154.458    -123.221
  O     -115.002    -151.842    -120.967
  O     -113.532    -153.752    -121.850
  H     -121.689    -151.341    -121.989
  H     -114.449    -151.988    -120.175
  H     -125.588    -155.116    -124.624
  H     -119.457    -156.050    -122.898
  H     -120.366    -152.507    -123.636
  H     -120.467    -153.611    -120.753
  H     -126.028    -152.809    -124.636
  H     -119.090    -151.724    -120.125
  H     -124.776    -151.711    -124.165
  H     -117.514    -151.869    -122.489
  H     -116.785    -152.703    -120.231
  H     -117.768    -154.168    -120.495
  P     -118.964    -149.294    -121.065
  C     -118.278    -148.009    -123.212
  O     -119.098    -148.038    -122.054
  O     -117.383    -149.543    -120.993
  O     -119.543    -149.104    -119.702
  H     -117.124    -149.748    -120.076
  H     -118.478    -147.117    -123.769
  H     -118.489    -148.864    -123.820
  H     -117.249    -148.024    -122.921

 6  7  8  9  10  11  12  13  14  15  26  29  33  34 0
 6-311+G(2d,p)
 ****
 36  38  39  40  41 0
 6-311+G(2d,p)
 ****
 1  2  3  4  5  16  17  18  19  20  21  22  23  24  25 0
 3-21G
 ****
 27  28  30  31  32  35  37  42  43  44  45  46  47 0
 3-21G
 ****
 48  49 0
 3-21G
 ****


