%nproc=1
%NoSave
%Mem=1900MB
#P OB98/GEN NMR

erre ene a

0 1
  C      161.100    -542.056    -380.035
  O      161.577    -542.518    -381.283
  H      160.295    -542.719    -379.693
  H      160.703    -541.044    -380.128
  H      161.905    -542.069    -379.294
  P      162.691    -541.608    -381.999
  C      163.528    -543.834    -383.083
  O      163.122    -542.484    -383.280
  C      163.455    -544.586    -384.411
  O      162.094    -544.707    -384.858
  C      164.203    -543.913    -385.550
  O      165.609    -544.124    -385.493
  C      163.573    -544.606    -386.752
  O      164.122    -545.939    -386.869
  C      162.094    -544.653    -386.314
  N      161.324    -543.506    -386.790
  C      160.690    -543.643    -388.034
  O      160.798    -544.685    -388.682
  N      159.973    -542.580    -388.526
  C      159.880    -541.478    -387.838
  N      159.171    -540.448    -388.394
  C      160.516    -541.305    -386.523
  C      161.212    -542.335    -386.055
  O      163.969    -541.747    -381.039
  O      162.295    -540.198    -382.300
  H      164.117    -546.327    -385.973
  H      164.756    -541.324    -381.465
  H      160.413    -540.352    -385.993
  H      161.703    -542.281    -385.101
  H      161.607    -545.570    -386.670
  H      163.764    -544.099    -387.693
  H      163.975    -542.841    -385.608
  H      163.831    -545.614    -384.241
  H      158.799    -540.588    -389.324
  H      162.856    -544.294    -382.350
  H      159.188    -539.504    -388.017
  H      164.550    -543.870    -382.699
  P      166.541    -542.855    -385.139
  C      167.655    -544.251    -383.252
  O      167.840    -543.421    -384.390
  O      165.730    -542.122    -383.960
  O      166.814    -541.936    -386.287
  H      165.769    -541.159    -384.045
  H      168.609    -544.546    -382.867
  H      167.099    -545.121    -383.532
  H      167.118    -543.711    -382.500

 6  7  8  9  10  11  12  13  14  15  16  26  30  31  32  33  35 0
 6-311+G(2d,p)
 ****
 37  38 0
 6-311+G(2d,p)
 ****
 1  2  3  4  5  17  18  19  20  21  22  23  24  25 0
 3-21G
 ****
 27  28  29  34  36  39  40  41  42  43  44  45  46 0
 3-21G
 ****


