%nproc=1
%NoSave
%Mem=1900MB
#P OB98/GEN NMR

erre ene a

0 1
  C      -45.264    -214.616      50.767
  O      -44.294    -214.636      51.804
  P      -42.747    -214.563      51.373
  C      -42.106    -213.345      53.572
  O      -41.922    -214.490      52.745
  C      -42.239    -213.756      55.034
  O      -43.446    -214.527      55.213
  C      -41.113    -214.640      55.550
  O      -39.965    -213.882      55.905
  C      -41.764    -215.256      56.781
  O      -41.683    -214.334      57.886
  C      -43.225    -215.426      56.330
  N      -43.833    -220.226      57.830
  C      -43.513    -219.103      58.566
  N      -43.356    -219.280      59.896
  N      -43.354    -217.912      58.045
  C      -43.581    -217.877      56.712
  C      -43.907    -218.921      55.871
  C      -44.026    -220.241      56.453
  O      -44.246    -221.284      55.841
  N      -44.073    -218.490      54.581
  C      -43.886    -217.186      54.642
  N      -43.555    -216.773      55.909
  O      -42.607    -213.083      50.777
  O      -42.315    -215.600      50.393
  H      -42.151    -214.750      58.637
  H      -41.868    -213.050      50.141
  H      -43.961    -221.114      58.282
  H      -43.980    -216.513      53.803
  H      -43.921    -215.128      57.123
  H      -41.278    -216.182      57.102
  H      -43.590    -220.137      60.369
  H      -40.867    -215.425      54.831
  H      -43.156    -218.461      60.457
  H      -42.326    -212.844      55.638
  H      -43.015    -212.822      53.263
  H      -41.253    -212.672      53.439
  P      -38.637    -214.712      56.261
  C      -37.297    -212.994      54.841
  O      -37.432    -213.673      56.078
  O      -38.479    -215.704      55.019
  O      -38.696    -215.433      57.563
  H      -37.990    -216.505      55.288
  H      -38.273    -212.750      54.414
  H      -36.736    -213.618      54.145
  H      -36.750    -212.063      55.008
  H      -46.244    -214.670      51.194
  H      -45.111    -215.454      50.119
  H      -45.169    -213.709      50.207

 3  4  5  6  7  8  9  10  11  12  23  26  30  31  33  0
 6-311+G(2d,p)
 ****
 35  36  37  38 0
 6-311+G(2d,p)
 ****
 1  2  13  14  15  16  17  18  19  20  21  22  24  25  27  28  29 0
 3-21G
 ****
 32  34  39  40  41  42  43  44  45  46  47  48  49 0
 3-21G
 ****


