%nproc=1
%NoSave
%Mem=1900MB
#P OB98/GEN NMR

erre ene a

0 1
  C       63.072      49.493     -47.946
  O       64.422      49.147     -47.729
  H       62.963      50.572     -47.806
  H       62.439      48.978     -47.218
  H       62.751      49.236     -48.958
  P       64.956      47.745     -48.285
  C       64.843      46.749     -45.908
  O       64.470      46.598     -47.272
  C       65.118      45.401     -45.240
  O       65.423      45.591     -43.841
  C       63.905      44.472     -45.286
  O       63.757      43.727     -46.481
  C       64.172      43.552     -44.098
  O       65.028      42.462     -44.476
  C       64.885      44.476     -43.108
  N       63.175      43.848     -38.336
  C       64.043      43.054     -39.060
  N       64.460      41.921     -38.455
  N       64.444      43.342     -40.270
  C       63.869      44.456     -40.782
  C       62.986      45.314     -40.166
  C       62.590      45.015     -38.805
  O       61.818      45.681     -38.123
  N       62.620      46.343     -41.000
  C       63.221      46.066     -42.139
  N       64.011      44.944     -42.048
  O       66.534      47.806     -48.006
  O       64.676      47.482     -49.733
  H       64.549      41.902     -45.113
  H       67.006      47.238     -48.641
  H       62.922      43.592     -37.398
  H       63.140      46.654     -43.046
  H       65.733      43.972     -42.628
  H       63.249      43.110     -43.713
  H       64.089      41.600     -37.574
  H       62.987      45.033     -45.086
  H       64.875      41.192     -39.039
  H       65.998      44.941     -45.704
  H       64.011      47.250     -45.408
  H       65.714      47.403     -45.823
  P       62.298      43.461     -47.084
  C       61.815      41.561     -45.373
  O       61.422      42.802     -45.915
  O       62.550      42.252     -48.100
  O       61.674      44.633     -47.759
  H       62.666      42.593     -49.007
  H       61.124      41.270     -44.610
  H       62.795      41.650     -44.952
  H       61.825      40.821     -46.146

 6  7  8  9  10  11  12  13  14  15  26  29  33  34 0
 6-311+G(2d,p)
 ****
 36  38  39  40  41 0
 6-311+G(2d,p)
 ****
 1  2  3  4  5  16  17  18  19  20  21  22  23  24  25 0
 3-21G
 ****
 27  28  30  31  32  35  37  42  43  44  45  46  47 0
 3-21G
 ****
 48  49 0
 3-21G
 ****


