%nproc=1
%NoSave
%Mem=1900MB
#P OB98/GEN NMR

erre ene a

0 1
  C      -34.032      38.980     -25.663
  O      -35.305      38.484     -25.300
  H      -33.576      38.282     -26.368
  H      -33.385      39.062     -24.785
  H      -34.128      39.953     -26.149
  P      -36.137      39.273     -24.175
  C      -34.922      37.936     -22.319
  O      -35.196      39.213     -22.873
  C      -34.858      38.023     -20.796
  O      -34.745      36.712     -20.205
  C      -33.663      38.798     -20.249
  O      -33.782      40.202     -20.405
  C      -33.715      38.368     -18.791
  O      -34.775      39.071     -18.119
  C      -34.052      36.864     -18.934
  N      -32.868      36.007     -18.893
  C      -32.445      35.583     -17.626
  O      -33.056      35.927     -16.615
  N      -31.314      34.807     -17.531
  C      -30.654      34.499     -18.602
  N      -29.514      33.768     -18.448
  C      -31.072      34.909     -19.957
  C      -32.172      35.657     -20.029
  O      -37.549      38.830     -23.966
  O      -36.008      40.813     -24.593
  H      -35.597      38.878     -18.605
  H      -36.519      41.344     -23.934
  H      -30.481      34.631     -20.816
  H      -32.534      36.012     -20.987
  H      -34.747      36.545     -18.149
  H      -32.790      38.577     -18.246
  H      -32.728      38.435     -20.687
  H      -35.807      38.451     -20.449
  H      -29.235      33.540     -17.504
  H      -33.973      37.580     -22.731
  H      -28.812      33.727     -19.179
  H      -35.714      37.230     -22.590
  P      -32.558      40.988     -21.087
  C      -31.583      41.459     -18.717
  O      -31.352      40.970     -20.028
  O      -33.056      42.508     -21.068
  O      -32.174      40.526     -22.458
  H      -33.489      42.746     -21.909
  H      -30.684      41.377     -18.142
  H      -32.357      40.884     -18.253
  H      -31.882      42.485     -18.767

 6  7  8  9  10  11  12  13  14  15  16  26  30  31  32  33  35 0
 6-311+G(2d,p)
 ****
 37  38 0
 6-311+G(2d,p)
 ****
 1  2  3  4  5  17  18  19  20  21  22  23  24  25 0
 3-21G
 ****
 27  28  29  34  36  39  40  41  42  43  44  45  46 0
 3-21G
 ****


