%nproc=1
%NoSave
%Mem=1900MB
#P OB98/GEN NMR

erre ene a

0 1
  C      -32.160     704.529     270.080
  O      -31.243     704.740     269.025
  H      -33.126     704.249     269.654
  H      -32.281     705.443     270.664
  H      -31.809     703.720     270.725
  P      -29.784     705.271     269.441
  C      -28.598     702.985     269.020
  O      -28.787     704.332     268.603
  C      -28.163     702.129     267.837
  O      -29.251     701.959     266.900
  C      -27.014     702.715     267.013
  O      -25.750     702.556     267.621
  C      -27.149     701.886     265.752
  O      -26.641     700.561     265.990
  C      -28.678     701.877     265.566
  N      -29.163     702.980     264.728
  C      -28.801     702.947     263.376
  O      -28.106     702.031     262.932
  N      -29.203     703.977     262.558
  C      -29.922     704.944     263.043
  N      -30.287     705.934     262.186
  C      -30.338     705.008     264.455
  C      -29.931     704.008     265.231
  O      -29.603     704.727     270.936
  O      -29.550     706.736     269.282
  H      -27.038     699.983     265.314
  H      -28.675     704.874     271.237
  H      -30.926     705.838     264.813
  H      -30.200     703.988     266.283
  H      -29.017     700.929     265.124
  H      -26.592     702.289     264.907
  H      -27.198     703.770     266.765
  H      -27.905     701.133     268.220
  H      -29.936     705.888     261.239
  H      -29.546     702.614     269.422
  H      -30.718     706.799     262.496
  H      -27.836     702.940     269.801
  P      -24.684     703.745     267.436
  C      -24.956     704.991     269.709
  O      -24.158     704.133     268.897
  O      -25.600     704.991     267.026
  O      -23.616     703.475     266.421
  H      -25.133     705.576     266.400
  H      -24.467     705.151     270.647
  H      -25.910     704.537     269.877
  H      -25.090     705.929     269.212

 6  7  8  9  10  11  12  13  14  15  16  26  30  31  32  33  35 0
 6-311+G(2d,p)
 ****
 37  38 0
 6-311+G(2d,p)
 ****
 1  2  3  4  5  17  18  19  20  21  22  23  24  25 0
 3-21G
 ****
 27  28  29  34  36  39  40  41  42  43  44  45  46 0
 3-21G
 ****


