%nproc=1
%NoSave
%Mem=1900MB
#P OB98/GEN NMR

erre ene a

0 1
  C      293.459    -337.631    -162.882
  O      293.124    -337.011    -164.119
  P      293.247    -337.903    -165.449
  C      295.287    -338.974    -166.641
  O      294.811    -337.922    -165.811
  C      296.795    -338.865    -166.829
  O      297.447    -338.871    -165.548
  C      297.418    -340.017    -167.607
  O      297.265    -339.855    -169.010
  C      298.877    -339.889    -167.197
  O      299.519    -338.874    -167.993
  C      298.770    -339.433    -165.732
  N      302.111    -342.582    -163.594
  C      302.304    -341.591    -164.540
  N      303.575    -341.399    -164.956
  N      301.343    -340.863    -165.037
  C      300.130    -341.139    -164.500
  C      299.812    -342.091    -163.555
  C      300.881    -342.931    -163.055
  O      300.756    -343.865    -162.266
  N      298.476    -342.065    -163.248
  C      297.994    -341.073    -163.974
  N      298.954    -340.499    -164.770
  O      292.619    -336.957    -166.577
  O      292.564    -339.227    -165.391
  H      298.898    -338.120    -168.048
  H      292.277    -337.499    -167.313
  H      302.891    -343.101    -163.236
  H      296.964    -340.742    -163.951
  H      299.488    -338.638    -165.511
  H      299.444    -340.816    -167.343
  H      304.373    -341.837    -164.519
  H      297.024    -340.980    -167.268
  H      303.744    -340.655    -165.621
  H      297.012    -337.909    -167.321
  H      294.800    -338.907    -167.619
  H      295.020    -339.933    -166.187
  P      297.247    -341.200    -169.890
  C      298.874    -343.222    -169.977
  O      298.700    -341.847    -169.702
  O      297.254    -340.654    -171.393
  O      296.086    -342.095    -169.619
  H      296.847    -341.309    -171.993
  H      298.259    -343.541    -170.825
  H      298.607    -343.808    -169.097
  H      299.924    -343.403    -170.219
  H      293.333    -336.928    -162.085
  H      294.477    -337.958    -162.911
  H      292.818    -338.473    -162.720

 3  4  5  6  7  8  9  10  11  12  23  26  30  31  33  0
 6-311+G(2d,p)
 ****
 35  36  37  38 0
 6-311+G(2d,p)
 ****
 1  2  13  14  15  16  17  18  19  20  21  22  24  25  27  28  29 0
 3-21G
 ****
 32  34  39  40  41  42  43  44  45  46  47  48  49 0
 3-21G
 ****


