%nproc=1
%NoSave
%Mem=1900MB
#P OB98/GEN NMR

erre ene a

0 1
  C      939.158    -282.976      -7.235
  O      938.524    -281.823      -7.767
  P      939.087    -280.362      -7.386
  C      937.377    -279.283      -8.983
  O      937.900    -279.301      -7.659
  C      935.929    -278.805      -8.965
  O      935.088    -279.773      -8.270
  C      935.707    -277.492      -8.234
  O      936.119    -276.389      -9.036
  C      934.204    -277.553      -7.961
  O      933.477    -277.134      -9.125
  C      933.996    -279.035      -7.688
  N      930.780    -280.265      -3.911
  C      930.553    -279.867      -5.194
  N      931.471    -279.519      -6.128
  C      932.726    -279.594      -5.620
  C      933.084    -279.948      -4.346
  C      932.062    -280.325      -3.456
  N      932.262    -280.790      -2.179
  N      934.467    -279.885      -4.202
  C      934.914    -279.480      -5.367
  N      933.895    -279.350      -6.281
  O      940.403    -280.008      -7.980
  O      939.168    -280.401      -5.779
  H      933.833    -277.654      -9.886
  H      940.090    -280.247      -5.515
  H      929.521    -279.820      -5.492
  H      935.954    -279.288      -5.613
  H      933.069    -279.406      -8.163
  H      933.905    -276.900      -7.120
  H      936.242    -277.501      -7.283
  H      935.570    -278.725      -9.991
  H      937.420    -280.301      -9.389
  H      931.468    -281.172      -1.696
  H      933.195    -281.143      -1.937
  H      937.993    -278.615      -9.605
  P      936.100    -274.923      -8.417
  C      936.760    -273.944     -10.717
  O      935.836    -273.912      -9.624
  O      937.271    -274.554      -7.539
  O      934.722    -274.855      -7.598
  H      934.831    -274.267      -6.820
  H      937.656    -273.412     -10.420
  H      936.306    -273.482     -11.575
  H      937.001    -275.000     -10.962
  H      938.658    -283.853      -7.589
  H      939.113    -282.947      -6.166
  H      940.181    -282.997      -7.549

 3  4  5  6  7  8  9  10  11  12  22  25  29  30  31  32 0
 6-311+G(2d,p)
 ****
 33  36  37 0
 6-311+G(2d,p)
 ****
 1  2  13  14  15  16  17  18  19  20  21  23  24  26 0
 3-21G
 ****
 27  28  34  35  38  39  40  41  42  43  44  45  46  47  48 0
 3-21G
 ****


