%nproc=1
%NoSave
%Mem=1900MB
#P OB98/GEN NMR

erre ene a

0 1
  C      -54.967      77.965     333.061
  O      -54.078      78.638     333.953
  P      -54.668      79.867     334.799
  C      -53.615      81.628     333.187
  O      -54.791      81.138     333.827
  C      -53.827      83.073     332.728
  O      -53.817      83.977     333.845
  C      -52.729      83.570     331.799
  O      -52.919      83.069     330.486
  C      -52.890      85.085     331.906
  O      -53.808      85.594     330.925
  C      -53.449      85.279     333.338
  N      -52.519      85.948     334.227
  C      -52.568      87.346     334.222
  O      -53.355      87.937     333.485
  N      -51.712      88.034     335.042
  C      -50.859      87.386     335.771
  N      -50.028      88.124     336.559
  C      -50.751      85.910     335.779
  C      -51.601      85.260     334.990
  O      -53.457      80.263     335.771
  O      -55.913      79.538     335.564
  H      -53.796      86.568     331.038
  H      -53.802      80.595     336.626
  H      -50.015      85.418     336.405
  H      -51.595      84.177     334.932
  H      -54.380      85.871     333.302
  H      -51.937      85.601     331.745
  H      -51.748      83.276     332.185
  H      -54.802      83.142     332.230
  H      -50.128      89.135     336.529
  H      -53.369      80.998     332.328
  H      -49.320      87.725     337.165
  H      -52.772      81.555     333.888
  P      -52.082      81.779     330.053
  C      -50.160      83.325     329.337
  O      -50.543      82.228     330.149
  O      -52.321      81.734     328.473
  O      -52.431      80.487     330.713
  H      -51.931      80.920     328.097
  H      -49.169      83.657     329.641
  H      -50.864      84.157     329.462
  H      -50.131      83.024     328.286
  H      -54.444      77.173     332.566
  H      -55.335      78.658     332.334
  H      -55.788      77.559     333.614

 3  4  5  6  7  8  9  10  11  12  13  21  23  27  28  29  30  32 0
 6-311+G(2d,p)
 ****
 34  35 0
 6-311+G(2d,p)
 ****
 1  2  14  15  16  17  18  19  20  22  24  25  26 0
 3-21G
 ****
 31  33  36  37  38  39  40  41  42  43  44  45  46 0
 3-21G
 ****


