%nproc=1
%NoSave
%Mem=1900MB
#P OB98/GEN NMR

erre ene a

0 1
  C       97.174    -151.060    -258.747
  O       96.845    -149.684    -258.742
  H       96.543    -151.574    -258.019
  H       98.221    -151.204    -258.467
  H       96.991    -151.493    -259.735
  P       97.642    -148.711    -259.731
  C       99.304    -147.933    -257.913
  O       99.134    -148.616    -259.148
  C      100.684    -148.226    -257.338
  O      100.782    -149.609    -256.944
  C      101.830    -147.970    -258.316
  O      102.149    -146.588    -258.355
  C      102.922    -148.819    -257.688
  O      103.467    -148.140    -256.539
  C      102.131    -150.062    -257.245
  N      104.187    -154.383    -258.917
  C      104.589    -153.547    -257.894
  N      105.727    -153.894    -257.252
  N      103.946    -152.463    -257.545
  C      102.869    -152.209    -258.320
  C      102.382    -152.951    -259.373
  C      103.070    -154.179    -259.714
  O      102.738    -154.955    -260.605
  N      101.304    -152.340    -259.964
  C      101.117    -151.250    -259.245
  N      102.050    -151.118    -258.243
  O       97.013    -147.376    -260.000
  O       97.821    -149.571    -261.067
  H      104.061    -148.773    -256.097
  H       97.095    -149.405    -261.694
  H      104.736    -155.193    -259.150
  H      100.323    -150.531    -259.402
  H      102.538    -150.511    -256.332
  H      103.749    -149.023    -258.365
  H      106.393    -154.538    -257.657
  H      101.610    -148.368    -259.312
  H      106.065    -153.267    -256.533
  H      100.805    -147.624    -256.428
  H       98.521    -148.284    -257.231
  H       99.186    -146.853    -258.056
  P      102.333    -145.820    -259.755
  C      104.787    -146.628    -259.754
  O      103.562    -146.557    -260.472
  O      102.472    -144.341    -259.643
  O      101.087    -146.289    -260.636
  H      100.285    -145.722    -260.519
  H      105.517    -147.142    -260.344
  H      104.633    -147.157    -258.837
  H      105.133    -145.638    -259.541

 6  7  8  9  10  11  12  13  14  15  26  29  33  34 0
 6-311+G(2d,p)
 ****
 36  38  39  40  41 0
 6-311+G(2d,p)
 ****
 1  2  3  4  5  16  17  18  19  20  21  22  23  24  25 0
 3-21G
 ****
 27  28  30  31  32  35  37  42  43  44  45  46  47 0
 3-21G
 ****
 48  49 0
 3-21G
 ****


