%nproc=1
%NoSave
%Mem=1900MB
#P OB98/GEN NMR

erre ene a

0 1
  C      515.247      42.078    1279.888
  O      516.493      42.066    1279.220
  P      516.847      40.793    1278.303
  C      515.753      41.723    1276.093
  O      515.731      40.770    1277.148
  C      515.851      41.005    1274.745
  O      514.827      40.004    1274.630
  C      515.683      41.918    1273.531
  O      516.843      42.686    1273.271
  C      515.334      40.901    1272.447
  O      516.517      40.263    1271.954
  C      514.482      39.886    1273.241
  N      513.031      40.056    1273.037
  C      512.546      39.717    1271.778
  O      513.262      39.287    1270.857
  N      511.206      39.902    1271.584
  C      510.326      40.453    1272.492
  O      509.149      40.628    1272.253
  C      510.909      40.812    1273.785
  C      512.218      40.614    1274.002
  O      516.433      39.589    1279.287
  O      518.268      40.770    1277.838
  H      515.738      39.866    1279.918
  H      516.966      39.864    1272.721
  H      510.817      39.640    1270.698
  H      510.257      41.253    1274.529
  H      512.654      40.900    1274.939
  H      514.738      38.856    1272.945
  H      514.813      41.351    1271.600
  H      514.821      42.589    1273.699
  H      516.833      40.491    1274.693
  H      516.610      42.382    1276.223
  H      514.833      42.316    1276.137
  P      516.678      44.288    1273.358
  C      517.564      44.429    1275.814
  O      516.501      44.639    1274.924
  O      515.215      44.483    1272.731
  O      517.764      45.041    1272.656
  H      514.576      43.819    1273.048
  H      517.384      45.027    1276.702
  H      518.521      44.721    1275.365
  H      517.611      43.372    1276.106
  H      515.155      42.981    1280.454
  H      515.187      41.237    1280.546
  H      514.456      42.025    1279.169

 3  4  5  6  7  8  9  10  11  12  13  24  28  29  30  31  32 0
 6-311+G(2d,p)
 ****
 33  34 0
 6-311+G(2d,p)
 ****
 1  2  14  15  16  17  18  19  20  21  22  23  25  26  27 0
 3-21G
 ****
 35  36  37  38  39  40  41  42  43  44  45 0
 3-21G
 ****


