%nproc=1
%NoSave
%Mem=1900MB
#P OB98/GEN NMR

erre ene a

0 1
  C      162.652     755.995     834.590
  O      163.078     755.528     835.867
  P      164.359     756.175     836.579
  C      165.461     756.149     838.905
  O      164.483     755.553     838.057
  C      165.083     755.959     840.365
  O      163.895     756.721     840.701
  C      164.735     754.517     840.732
  O      165.879     753.685     840.781
  C      164.022     754.729     842.069
  O      164.970     754.884     843.131
  C      163.270     756.043     841.819
  N      161.846     755.834     841.565
  C      161.066     755.558     842.699
  O      161.582     755.460     843.798
  N      159.696     755.451     842.521
  C      159.197     755.457     841.329
  N      157.832     755.392     841.225
  C      160.017     755.567     840.094
  C      161.309     755.768     840.287
  O      164.419     757.674     836.515
  O      165.610     755.522     835.819
  H      166.213     756.229     835.540
  H      165.556     754.092     843.093
  H      159.535     755.497     839.130
  H      161.996     755.881     839.463
  H      163.376     756.712     842.671
  H      163.380     753.862     842.322
  H      164.025     754.114     839.995
  H      165.916     756.324     840.982
  H      157.306     755.337     842.088
  H      165.510     757.218     838.673
  H      157.337     755.705     840.393
  H      166.438     755.706     838.691
  P      165.622     752.106     840.892
  C      166.819     750.015     839.918
  O      166.518     751.392     839.769
  O      164.122     751.929     840.348
  O      165.770     751.535     842.262
  H      163.674     751.232     840.844
  H      167.114     749.617     838.947
  H      165.956     749.452     840.288
  H      167.648     749.903     840.620
  H      161.787     755.446     834.280
  H      163.438     755.854     833.878
  H      162.411     757.036     834.653

 3  4  5  6  7  8  9  10  11  12  13  24  27  28  29  30  32 0
 6-311+G(2d,p)
 ****
 34  35 0
 6-311+G(2d,p)
 ****
 1  2  14  15  16  17  18  19  20  21  22  23  25  26 0
 3-21G
 ****
 31  33  36  37  38  39  40  41  42  43  44  45  46 0
 3-21G
 ****


