%nproc=1
%NoSave
%Mem=1900MB
#P OB98/GEN NMR

erre ene a

0 1
  C      408.984    -318.178    1328.918
  O      409.098    -318.158    1327.497
  P      408.382    -316.952    1326.714
  C      410.568    -315.720    1326.023
  O      409.415    -316.449    1325.600
  C      411.604    -315.663    1324.893
  O      411.935    -316.990    1324.450
  C      411.131    -314.925    1323.653
  O      411.239    -313.516    1323.779
  C      412.112    -315.445    1322.609
  O      413.360    -314.742    1322.716
  C      412.284    -316.909    1323.033
  N      412.208    -321.187    1320.333
  C      413.201    -320.659    1321.133
  N      414.370    -321.337    1321.161
  N      413.081    -319.559    1321.834
  C      411.859    -318.978    1321.702
  C      410.784    -319.411    1320.947
  C      410.946    -320.618    1320.166
  O      410.119    -321.102    1319.406
  N      409.717    -318.567    1321.069
  C      410.127    -317.625    1321.901
  N      411.440    -317.818    1322.271
  O      408.388    -315.757    1327.785
  O      406.999    -317.261    1326.229
  H      413.924    -315.063    1321.980
  H      407.741    -315.068    1327.522
  H      412.356    -322.026    1319.807
  H      409.524    -316.793    1322.237
  H      413.322    -317.238    1322.934
  H      411.757    -315.318    1321.587
  H      414.564    -322.157    1320.589
  H      410.115    -315.221    1323.368
  H      415.154    -320.935    1321.679
  H      412.510    -315.194    1325.298
  H      411.005    -316.208    1326.904
  H      410.254    -314.706    1326.305
  P      410.236    -312.622    1322.897
  C      408.265    -312.340    1324.576
  O      409.402    -311.758    1323.950
  O      409.179    -313.697    1322.362
  O      410.897    -311.871    1321.783
  H      408.781    -313.403    1321.516
  H      407.993    -311.725    1325.438
  H      408.488    -313.351    1324.927
  H      407.437    -312.366    1323.866
  H      409.504    -319.029    1329.306
  H      407.951    -318.236    1329.192
  H      409.411    -317.284    1329.323

 3  4  5  6  7  8  9  10  11  12  23  26  30  31 0
 6-311+G(2d,p)
 ****
 33  35  36  37  38 0
 6-311+G(2d,p)
 ****
 1  2  13  14  15  16  17  18  19  20  21  22  24  25 0
 3-21G
 ****
 27  28  29  32  34  39  40  41  42  43  44  45  46  47  48  49 0
 3-21G
 ****


