%nproc=1
%NoSave
%Mem=1900MB
#P OB98/GEN NMR

erre ene a

0 1
  C     -174.191    -188.452     -74.567
  O     -174.514    -187.084     -74.447
  H     -173.647    -188.605     -75.503
  H     -175.104    -189.051     -74.593
  H     -173.557    -188.773     -73.734
  P     -175.178    -186.598     -73.069
  C     -173.147    -186.341     -71.473
  O     -174.080    -185.692     -72.324
  C     -171.943    -185.432     -71.208
  O     -171.171    -185.319     -72.429
  C     -172.329    -184.021     -70.761
  O     -171.390    -183.585     -69.770
  C     -172.160    -183.185     -72.017
  O     -171.912    -181.809     -71.735
  C     -171.012    -183.915     -72.723
  N     -171.018    -183.656     -74.162
  C     -169.890    -183.024     -74.688
  O     -168.958    -182.699     -73.950
  N     -169.869    -182.711     -76.024
  C     -170.918    -182.941     -76.756
  N     -170.843    -182.586     -78.067
  C     -172.153    -183.548     -76.222
  C     -172.133    -183.884     -74.935
  O     -175.216    -187.929     -72.186
  O     -176.522    -185.961     -73.199
  H     -171.747    -181.346     -72.586
  H     -175.982    -187.934     -71.582
  H     -173.012    -183.696     -76.866
  H     -172.997    -184.329     -74.457
  H     -170.043    -183.598     -72.313
  H     -173.075    -183.244     -72.621
  H     -173.341    -183.957     -70.353
  H     -171.300    -185.918     -70.466
  H     -169.985    -182.156     -78.388
  H     -172.799    -187.259     -71.958
  H     -171.614    -182.676     -78.714
  H     -173.637    -186.606     -70.529
  P     -171.979    -182.738     -68.543
  C     -169.843    -183.336     -67.193
  O     -170.760    -182.323     -67.586
  O     -172.781    -183.829     -67.688
  O     -172.865    -181.609     -68.965
  H     -173.740    -183.688     -67.784
  H     -169.091    -182.911     -66.561
  H     -169.382    -183.757     -68.062
  H     -170.365    -184.103     -66.660

 6  7  8  9  10  11  12  13  14  15  16  26  30  31  32  33  35 0
 6-311+G(2d,p)
 ****
 37  38 0
 6-311+G(2d,p)
 ****
 1  2  3  4  5  17  18  19  20  21  22  23  24  25 0
 3-21G
 ****
 27  28  29  34  36  39  40  41  42  43  44  45  46 0
 3-21G
 ****


