%nproc=1
%NoSave
%Mem=1900MB
#P OB98/GEN NMR

erre ene a

0 1
  C      -48.852     130.382      85.253
  O      -48.545     129.763      84.017
  H      -48.677     129.663      86.055
  H      -49.903     130.675      85.270
  H      -48.216     131.255      85.415
  P      -48.539     130.654      82.679
  C      -51.011     130.116      82.127
  O      -50.056     131.124      82.436
  C      -52.410     130.716      82.015
  O      -52.321     132.009      81.351
  C      -53.402     129.854      81.185
  O      -54.721     130.091      81.718
  C      -53.243     130.475      79.807
  O      -54.233     130.063      78.904
  C      -53.209     131.960      80.203
  N      -52.760     132.883      79.164
  C      -53.705     133.299      78.233
  O      -54.885     132.963      78.219
  N      -53.240     134.160      77.259
  C      -51.958     134.625      77.155
  O      -51.607     135.416      76.282
  C      -51.009     134.134      78.164
  C      -51.446     133.305      79.114
  O      -47.862     130.056      81.495
  O      -47.822     132.013      83.146
  H      -46.894     132.014      82.835
  H      -54.008     130.401      78.011
  H      -53.907     134.480      76.583
  H      -49.987     134.479      78.097
  H      -50.769     132.937      79.875
  H      -54.204     132.275      80.561
  H      -52.284     130.169      79.370
  H      -53.181     128.787      81.232
  H      -52.808     130.907      83.018
  H      -50.989     129.363      82.926
  H      -50.731     129.629      81.177
  P      -55.527     129.023      82.597
  C      -57.079     128.342      80.640
  O      -56.131     127.909      81.606
  O      -56.545     129.626      83.517
  O      -54.405     128.235      83.440
  H      -54.796     127.876      84.257
  H      -57.396     127.506      80.052
  H      -56.630     129.076      80.004
  H      -57.925     128.770      81.137

 6  7  8  9  10  11  12  13  14  15  16  27  31  32  33  34  35 0
 6-311+G(2d,p)
 ****
 36  37 0
 6-311+G(2d,p)
 ****
 1  2  3  4  5  17  18  19  20  21  22  23  24  25 0
 3-21G
 ****
 26  28  29  30  38  39  40  41  42  43  44  45 0
 3-21G
 ****


