%nproc=1
%NoSave
%Mem=1900MB
#P OB98/GEN NMR

erre ene a

0 1
  C     -282.139    -597.095      11.028
  O     -282.740    -597.720       9.890
  P     -282.219    -599.177       9.488
  C     -280.553    -598.114       7.783
  O     -280.748    -599.047       8.848
  C     -279.125    -597.563       7.831
  O     -278.163    -598.625       7.978
  C     -278.722    -596.839       6.552
  O     -279.287    -595.535       6.516
  C     -277.198    -596.849       6.648
  O     -276.704    -595.693       7.340
  C     -276.909    -598.139       7.460
  N     -276.235    -599.161       6.673
  C     -274.834    -599.086       6.643
  O     -274.252    -598.187       7.250
  N     -274.145    -600.022       5.923
  C     -274.793    -600.926       5.257
  N     -274.056    -601.827       4.549
  C     -276.269    -601.017       5.232
  C     -276.920    -600.113       5.956
  O     -283.137    -599.568       8.225
  O     -282.333    -600.193      10.586
  H     -275.741    -595.854       7.461
  H     -283.305    -600.536       8.209
  H     -276.758    -601.791       4.651
  H     -278.007    -600.102       5.993
  H     -276.279    -597.901       8.331
  H     -276.733    -596.846       5.655
  H     -279.044    -597.416       5.674
  H     -279.042    -596.883       8.687
  H     -273.041    -601.737       4.589
  H     -281.274    -597.294       7.868
  H     -274.448    -602.575       3.990
  H     -280.753    -598.617       6.826
  P     -280.531    -595.284       5.552
  C     -279.293    -593.369       4.373
  O     -279.905    -594.637       4.219
  O     -281.247    -594.024       6.232
  O     -281.472    -596.420       5.341
  H     -282.088    -593.831       5.784
  H     -278.737    -593.131       3.465
  H     -278.591    -593.379       5.220
  H     -280.055    -592.593       4.528
  H     -282.580    -596.132      11.180
  H     -281.088    -596.983      10.860
  H     -282.299    -597.702      11.894

 3  4  5  6  7  8  9  10  11  12  13  21  23  27  28  29  30  32 0
 6-311+G(2d,p)
 ****
 34  35 0
 6-311+G(2d,p)
 ****
 1  2  14  15  16  17  18  19  20  22  24  25  26 0
 3-21G
 ****
 31  33  36  37  38  39  40  41  42  43  44  45  46 0
 3-21G
 ****


