%nproc=1
%NoSave
%Mem=1900MB
#P OB98/GEN NMR

erre ene a

0 1
  C     -206.182     593.599    -893.400
  O     -206.286     592.770    -894.550
  H     -207.111     593.527    -892.830
  H     -206.030     594.645    -893.690
  H     -205.352     593.266    -892.770
  P     -205.104     592.820    -895.630
  C     -204.114     594.932    -896.750
  O     -205.292     594.213    -896.410
  C     -204.491     596.235    -897.470
  O     -205.348     597.029    -896.610
  C     -203.281     597.114    -897.780
  O     -202.565     596.609    -898.890
  C     -203.960     598.458    -897.980
  O     -204.524     598.560    -899.280
  C     -205.053     598.420    -896.890
  N     -204.664     599.119    -895.660
  C     -204.267     600.450    -895.820
  O     -204.254     600.974    -896.940
  N     -203.858     601.149    -894.710
  C     -203.873     600.575    -893.540
  N     -203.451     601.320    -892.490
  C     -204.302     599.180    -893.340
  C     -204.679     598.520    -894.430
  O     -204.957     591.630    -896.520
  O     -203.791     593.075    -894.740
  H     -204.875     599.473    -899.360
  H     -203.397     592.233    -894.460
  H     -204.294     598.737    -892.340
  H     -205.009     597.487    -894.360
  H     -205.985     598.874    -897.260
  H     -203.247     599.277    -897.850
  H     -202.636     597.183    -896.890
  H     -205.044     595.986    -898.380
  H     -203.155     602.276    -892.670
  H     -203.530     594.291    -897.420
  H     -203.508     601.004    -891.520
  H     -203.512     595.141    -895.860
  P     -201.019     596.980    -899.090
  C     -199.811     599.261    -899.160
  O     -200.993     598.547    -899.480
  O     -200.260     596.083    -900.000
  O     -200.441     596.984    -897.580
  H     -200.346     596.069    -897.240
  H     -199.917     600.281    -899.466
  H     -198.979     598.820    -899.669
  H     -199.645     599.221    -898.104

 6  7  8  9  10  11  12  13  14  15  16  26  30  31  32  33  35 0
 6-311+G(2d,p)
 ****
 37  38 0
 6-311+G(2d,p)
 ****
 1  2  3  4  5  17  18  19  20  21  22  23  24  25 0
 3-21G
 ****
 27  28  29  34  36  39  40  41  42  43  44  45  46 0
 3-21G
 ****


