%nproc=1
%NoSave
%Mem=1900MB
#P OB98/GEN NMR

erre ene a

0 1
  C     -612.511     979.919     -37.205
  O     -611.402     980.370     -36.427
  P     -610.120     979.409     -36.368
  C     -608.352     981.154     -37.110
  O     -609.031     979.948     -37.417
  C     -607.586     981.706     -38.317
  O     -606.566     980.773     -38.751
  C     -608.480     982.001     -39.521
  O     -607.930     983.133     -40.199
  C     -608.285     980.774     -40.400
  O     -608.635     981.045     -41.753
  C     -606.793     980.482     -40.146
  N     -606.414     979.110     -40.485
  C     -606.661     978.689     -41.796
  O     -607.233     979.434     -42.588
  N     -606.278     977.424     -42.161
  C     -605.757     976.630     -41.283
  N     -605.405     975.383     -41.710
  C     -605.534     977.011     -39.875
  C     -605.882     978.253     -39.553
  O     -610.642     978.048     -37.028
  O     -609.606     979.179     -34.981
  H     -608.508     980.223     -42.270
  H     -610.418     977.290     -36.457
  H     -605.112     976.304     -39.178
  H     -605.754     978.628     -38.547
  H     -606.166     981.163     -40.738
  H     -608.904     979.949     -40.034
  H     -609.522     982.193     -39.258
  H     -607.075     982.628     -38.004
  H     -605.566     975.162     -42.685
  H     -607.647     980.984     -36.291
  H     -604.995     974.684     -41.114
  H     -609.079     981.886     -36.738
  P     -608.341     984.597     -39.687
  C     -605.958     985.507     -39.418
  O     -607.114     985.057     -38.758
  O     -609.462     984.246     -38.590
  O     -608.840     985.581     -40.683
  H     -609.845     985.072     -38.241
  H     -605.257     985.903     -38.677
  H     -606.204     986.298     -40.131
  H     -605.474     984.669     -39.939
  H     -613.295     980.646     -37.163
  H     -612.866     978.988     -36.814
  H     -612.203     979.785     -38.221

 3  4  5  6  7  8  9  10  11  12  13  21  23  27  28  29  30  32 0
 6-311+G(2d,p)
 ****
 34  35 0
 6-311+G(2d,p)
 ****
 1  2  14  15  16  17  18  19  20  22  24  25  26 0
 3-21G
 ****
 31  33  36  37  38  39  40  41  42  43  44  45  46 0
 3-21G
 ****


