%nproc=1
%NoSave
%Mem=1900MB
#P OB98/GEN NMR

erre ene a

0 1
  C      344.031     115.629    -150.942
  O      343.740     114.257    -151.130
  H      343.097     116.194    -150.991
  H      344.703     115.981    -151.730
  H      344.490     115.787    -149.963
  P      344.987     113.251    -151.075
  C      344.576     111.748    -153.167
  O      344.486     111.887    -151.757
  C      343.347     111.007    -153.710
  O      343.147     109.797    -152.922
  C      342.043     111.816    -153.621
  O      341.179     111.384    -154.686
  C      341.480     111.348    -152.289
  O      340.128     111.718    -152.151
  C      341.805     109.860    -152.387
  N      339.779     105.865    -149.922
  C      339.711     106.255    -151.212
  N      340.286     107.322    -151.798
  C      341.017     108.017    -150.908
  C      341.189     107.738    -149.563
  C      340.522     106.605    -149.065
  N      340.583     106.212    -147.749
  N      342.005     108.685    -148.970
  C      342.321     109.516    -149.945
  N      341.740     109.157    -151.129
  O      345.096     112.883    -149.523
  O      346.270     113.788    -151.617
  H      339.772     111.429    -151.285
  H      345.754     113.460    -149.091
  H      339.109     105.621    -151.863
  H      342.953     110.390    -149.843
  H      341.140     109.344    -153.092
  H      342.017     111.811    -151.454
  H      342.195     112.897    -153.689
  H      343.549     110.685    -154.738
  H      345.484     111.182    -153.402
  H      344.637     112.737    -153.628
  H      340.065     105.395    -147.470
  H      341.121     106.764    -147.096
  P      340.879     112.388    -155.905
  C      338.389     112.336    -156.711
  O      339.693     111.776    -156.794
  O      342.155     112.155    -156.851
  O      340.750     113.830    -155.541
  H      342.331     112.965    -157.366
  H      337.731     111.806    -157.368
  H      338.425     113.367    -156.997
  H      338.030     112.257    -155.706

 6  7  8  9  10  11  12  13  14  15  25  28  32  33  34  35 0
 6-311+G(2d,p)
 ****
 36  37  40 0
 6-311+G(2d,p)
 ****
 1  2  3  4  5  16  17  18  19  20  21  22  23  24 0
 3-21G
 ****
 26  27  29  30  31  38  39 41  42  43  44  45  46  47  48 0
 3-21G
 ****


