%nproc=1
%NoSave
%Mem=1900MB
#P OB98/GEN NMR

erre ene a

0 1
  C      256.708      47.741     -46.426
  O      256.216      47.840     -45.082
  P      256.850      47.021     -43.859
  C      258.102      49.240     -43.448
  O      258.106      47.825     -43.275
  C      258.792      49.955     -42.282
  O      258.039      49.791     -41.068
  C      260.191      49.446     -41.961
  O      261.140      49.920     -42.908
  C      260.383      49.986     -40.546
  O      260.795      51.360     -40.565
  C      258.960      49.849     -39.961
  N      258.824      48.689     -39.091
  C      258.477      48.946     -37.760
  O      258.366      50.101     -37.357
  N      258.298      47.877     -36.911
  C      258.516      46.673     -37.334
  N      258.311      45.659     -36.453
  C      258.967      46.363     -38.704
  C      259.096      47.413     -39.519
  O      257.138      45.588     -44.176
  O      255.765      47.120     -42.685
  H      260.633      51.708     -39.667
  H      255.811      46.314     -42.139
  H      259.161      45.349     -39.009
  H      259.411      47.276     -40.548
  H      258.694      50.749     -39.395
  H      261.137      49.430     -39.984
  H      260.194      48.350     -41.938
  H      258.818      51.028     -42.519
  H      257.997      45.901     -35.522
  H      257.059      49.574     -43.509
  H      258.450      44.684     -36.679
  H      258.601      49.481     -44.392
  P      261.392      49.095     -44.255
  C      260.555      51.019     -45.741
  O      260.382      49.666     -45.363
  O      261.408      47.612     -44.113
  O      262.811      49.636     -44.767
  H      263.271      48.917     -45.243
  H      260.118      51.164     -46.730
  H      261.614      51.288     -45.771
  H      260.034      51.662     -45.024
  H      256.130      48.376     -47.065
  H      256.627      46.728     -46.762
  H      257.734      48.045     -46.454

 3  4  5  6  7  8  9  10  11  12  13  23  27  28  29  30  32 0
 6-311+G(2d,p)
 ****
 34  35 0
 6-311+G(2d,p)
 ****
 1  2  14  15  16  17  18  19  20  21  22  24  25  26 0
 3-21G
 ****
 31  33  36  37  38  39  40  41  42  43  44  45  46 0
 3-21G
 ****


