%nproc=1
%NoSave
%Mem=1900MB
#P OB98/GEN NMR

erre ene a

0 1
  C       51.765    -112.403     265.450
  O       51.613    -113.577     266.223
  H       50.785    -111.941     265.319
  H       52.169    -112.656     264.467
  H       52.427    -111.695     265.955
  P       52.955    -114.367     266.613
  C       54.961    -112.935     267.420
  O       53.691    -113.484     267.738
  C       55.427    -111.981     268.519
  O       54.440    -110.918     268.671
  C       55.603    -112.642     269.896
  O       56.709    -112.009     270.553
  C       54.330    -112.248     270.627
  O       54.468    -112.316     272.044
  C       54.127    -110.837     270.076
  N       50.998    -109.037     273.580
  C       52.332    -109.387     273.663
  N       52.927    -109.236     274.866
  N       53.024    -109.846     272.655
  C       52.310    -109.916     271.504
  C       50.988    -109.605     271.292
  C       50.225    -109.124     272.425
  O       49.037    -108.815     272.419
  N       50.630    -109.840     269.987
  C       51.733    -110.289     269.415
  N       52.779    -110.353     270.293
  O       53.869    -114.164     265.315
  O       52.774    -115.808     266.951
  H       53.641    -111.975     272.443
  H       53.762    -114.918     264.705
  H       50.508    -108.701     274.391
  H       51.826    -110.583     268.378
  H       54.806    -110.108     270.537
  H       53.504    -112.907     270.331
  H       52.471    -108.843     275.674
  H       55.764    -113.725     269.861
  H       53.917    -109.445     274.936
  H       56.357    -111.502     268.194
  H       54.883    -112.384     266.476
  H       55.684    -113.747     267.301
  P       58.051    -112.858     270.758
  C       60.282    -113.061     269.436
  O       58.885    -112.811     269.390
  O       57.514    -114.369     270.793
  O       58.812    -112.515     271.996
  H       58.115    -114.921     271.325
  H       60.689    -112.993     268.449
  H       60.456    -114.042     269.827
  H       60.753    -112.337     270.067

 6  7  8  9  10  11  12  13  14  15  26  29  33  34 0
 6-311+G(2d,p)
 ****
 36  38  39  40  41 0
 6-311+G(2d,p)
 ****
 1  2  3  4  5  16  17  18  19  20  21  22  23  24  25 0
 3-21G
 ****
 27  28  30  31  32  35  37  42  43  44  45  46  47 0
 3-21G
 ****
 48  49 0
 3-21G
 ****


