%nproc=1
%NoSave
%Mem=1900MB
#P OB98/GEN NMR

erre ene a

0 1
  C      -92.464    -158.490      71.474
  O      -92.117    -159.569      70.598
  P      -92.898    -160.956      70.794
  C      -93.789    -161.391      68.367
  O      -92.831    -161.695      69.370
  C      -93.154    -161.515      66.983
  O      -92.163    -160.479      66.783
  C      -92.424    -162.829      66.750
  O      -93.332    -163.900      66.545
  C      -91.568    -162.471      65.541
  O      -92.346    -162.550      64.338
  C      -91.197    -161.000      65.838
  N      -89.833    -160.841      66.322
  C      -88.875    -160.544      65.359
  O      -89.138    -160.442      64.158
  N      -87.594    -160.386      65.817
  C      -87.185    -160.525      67.108
  O      -86.024    -160.363      67.460
  C      -88.234    -160.890      68.076
  C      -89.489    -161.029      67.649
  O      -94.410    -160.447      70.906
  O      -92.406    -161.744      71.960
  H      -94.595    -159.676      70.344
  H      -92.598    -163.489      64.233
  H      -86.888    -160.159      65.133
  H      -87.937    -161.032      69.108
  H      -90.276    -161.300      68.345
  H      -91.306    -160.396      64.928
  H      -90.710    -163.141      65.423
  H      -91.778    -163.053      67.610
  H      -93.946    -161.385      66.233
  H      -94.163    -160.371      68.502
  H      -94.639    -162.072      68.476
  P      -92.993    -165.292      67.274
  C      -95.020    -165.904      68.804
  O      -94.397    -166.014      67.547
  O      -92.529    -164.779      68.718
  O      -91.971    -166.110      66.556
  H      -93.110    -164.086      69.079
  H      -96.082    -166.147      68.693
  H      -94.933    -164.891      69.209
  H      -94.569    -166.614      69.502
  H      -91.871    -157.632      71.235
  H      -92.279    -158.780      72.487
  H      -93.500    -158.252      71.354

 3  4  5  6  7  8  9  10  11  12  13  24  28  29  30  31  32 0
 6-311+G(2d,p)
 ****
 33  34 0
 6-311+G(2d,p)
 ****
 1  2  14  15  16  17  18  19  20  21  22  23  25  26  27 0
 3-21G
 ****
 35  36  37  38  39  40  41  42  43  44  45 0
 3-21G
 ****


