%nproc=1
%NoSave
%Mem=1900MB
#P OB98/GEN NMR

erre ene a

0 1
  C      151.511     208.142    -234.518
  O      150.228     208.654    -234.833
  P      149.035     208.378    -233.795
  C      147.218     206.793    -234.782
  O      148.475     206.911    -234.129
  C      147.355     207.164    -236.259
  O      148.556     206.584    -236.820
  C      146.218     206.651    -237.137
  O      145.073     207.487    -237.071
  C      146.852     206.730    -238.516
  O      146.808     208.087    -239.003
  C      148.305     206.316    -238.225
  N      150.446     203.059    -241.449
  C      150.557     204.435    -241.383
  N      151.292     205.032    -242.343
  N      149.998     205.165    -240.450
  C      149.277     204.433    -239.560
  C      149.096     203.068    -239.524
  C      149.712     202.277    -240.571
  O      149.605     201.062    -240.717
  N      148.314     202.695    -238.468
  C      148.019     203.825    -237.854
  N      148.546     204.910    -238.507
  O      147.864     209.342    -234.315
  O      149.379     208.630    -232.368
  H      147.202     208.073    -239.900
  H      147.194     209.457    -233.613
  H      150.894     202.548    -242.197
  H      147.424     203.909    -236.956
  H      149.022     206.912    -238.799
  H      146.343     206.107    -239.256
  H      151.705     204.538    -243.122
  H      145.971     205.606    -236.909
  H      151.344     206.043    -242.353
  H      147.441     208.254    -236.332
  H      146.502     207.463    -234.308
  H      146.854     205.767    -234.681
  P      143.690     206.864    -237.602
  C      142.997     208.169    -239.742
  O      143.714     207.078    -239.192
  O      142.598     207.911    -237.088
  O      143.419     205.473    -237.129
  H      141.731     207.476    -236.974
  H      143.329     208.321    -240.775
  H      143.179     209.086    -239.179
  H      141.922     207.944    -239.747
  H      152.199     208.402    -235.295
  H      151.458     207.077    -234.430
  H      151.844     208.561    -233.591

 3  4  5  6  7  8  9  10  11  12  23  26  30  31 0
 6-311+G(2d,p)
 ****
 33  35  36  37  38 0
 6-311+G(2d,p)
 ****
 1  2  13  14  15  16  17  18  19  20  21  22  24  25 0
 3-21G
 ****
 27  28  29  32  34  39  40  41  42  43  44  45  46  47  48  49 0
 3-21G
 ****


