%nproc=1
%NoSave
%Mem=1900MB
#P OB98/GEN NMR

erre ene a

0 1
  C      186.196    -201.807    -287.913
  O      185.201    -201.790    -286.888
  P      185.694    -201.491    -285.387
  C      185.721    -204.011    -284.676
  O      186.461    -202.819    -284.903
  C      186.636    -205.112    -284.119
  O      185.822    -206.264    -283.720
  C      187.708    -205.610    -285.097
  O      188.881    -205.885    -284.321
  C      187.107    -206.907    -285.626
  O      188.105    -207.775    -286.151
  C      186.393    -207.416    -284.372
  N      185.372    -208.424    -284.674
  C      185.810    -209.727    -284.895
  O      187.001    -210.033    -284.928
  N      184.832    -210.655    -285.135
  C      183.492    -210.398    -285.244
  O      182.660    -211.270    -285.455
  C      183.101    -208.982    -285.111
  C      184.047    -208.077    -284.837
  O      184.312    -201.517    -284.588
  O      186.475    -200.218    -285.272
  H      183.683    -202.181    -284.919
  H      187.673    -208.569    -286.527
  H      185.129    -211.611    -285.265
  H      182.055    -208.735    -285.247
  H      183.789    -207.026    -284.757
  H      187.115    -207.867    -283.675
  H      186.391    -206.683    -286.420
  H      187.935    -204.885    -285.875
  H      187.111    -204.726    -283.207
  H      185.283    -204.359    -285.612
  H      184.892    -203.794    -283.988
  P      190.060    -204.785    -284.307
  C      191.693    -206.010    -285.956
  O      190.834    -204.911    -285.703
  O      191.069    -205.467    -283.270
  O      189.638    -203.411    -283.892
  H      191.220    -206.416    -283.449
  H      191.930    -206.034    -287.018
  H      191.220    -206.955    -285.675
  H      192.626    -205.881    -285.391
  H      185.734    -202.016    -288.855
  H      186.920    -202.564    -287.695
  H      186.679    -200.853    -287.957

 3  4  5  6  7  8  9  10  11  12  13  24  28  29  30  31  32 0
 6-311+G(2d,p)
 ****
 33  34 0
 6-311+G(2d,p)
 ****
 1  2  14  15  16  17  18  19  20  21  22  23  25  26  27 0
 3-21G
 ****
 35  36  37  38  39  40  41  42  43  44  45 0
 3-21G
 ****


