%nproc=1
%NoSave
%Mem=1900MB
#P OB98/GEN NMR

erre ene a

0 1
  C       -3.049     -24.949    -223.173
  O       -2.532     -26.263    -223.143
  P       -3.273     -27.439    -222.343
  C       -1.902     -27.043    -220.205
  O       -3.194     -27.029    -220.793
  C       -1.586     -28.406    -219.584
  O       -0.273     -28.363    -218.962
  C       -2.589     -28.870    -218.518
  O       -2.663     -30.294    -218.631
  C       -1.899     -28.473    -217.228
  O       -2.407     -29.171    -216.098
  C       -0.435     -28.759    -217.583
  N        0.490     -28.060    -216.698
  C        1.123     -28.829    -215.716
  O        0.833     -30.020    -215.578
  N        2.025     -28.222    -214.880
  C        2.199     -26.940    -214.949
  N        3.109     -26.395    -214.099
  C        1.458     -26.073    -215.885
  C        0.638     -26.695    -216.731
  O       -2.796     -28.816    -222.655
  O       -4.819     -27.208    -222.682
  H       -3.352     -28.930    -215.985
  H       -5.027     -27.538    -223.592
  H        1.595     -25.002    -215.869
  H        0.054     -26.144    -217.454
  H       -0.226     -29.835    -217.523
  H       -2.043     -27.400    -217.048
  H       -3.580     -28.421    -218.623
  H       -1.538     -29.142    -220.396
  H        3.606     -27.027    -213.485
  H       -1.881     -26.286    -219.416
  H        3.379     -25.424    -214.127
  H       -1.147     -26.771    -220.949
  P       -4.070     -31.044    -218.795
  C       -4.355     -31.317    -216.267
  O       -4.903     -30.776    -217.456
  O       -3.977     -32.479    -219.202
  O       -4.856     -30.177    -219.892
  H       -5.606     -30.697    -220.237
  H       -4.837     -30.846    -215.406
  H       -3.278     -31.138    -216.214
  H       -4.546     -32.394    -216.234
  H       -2.405     -24.326    -223.758
  H       -3.107     -24.566    -222.176
  H       -4.027     -24.960    -223.608

 3  4  5  6  7  8  9  10  11  12  13  23  27  28  29  30  32 0
 6-311+G(2d,p)
 ****
 34  35 0
 6-311+G(2d,p)
 ****
 1  2  14  15  16  17  18  19  20  21  22  24  25  26 0
 3-21G
 ****
 31  33  36  37  38  39  40  41  42  43  44  45  46 0
 3-21G
 ****


