%nproc=1
%NoSave
%Mem=1900MB
#P OB98/GEN NMR

erre ene a

0 1
  C       32.977     -34.054     -39.168
  O       34.179     -33.982     -38.427
  H       33.225     -34.230     -40.219
  H       32.418     -33.118     -39.093
  H       32.363     -34.885     -38.810
  P       34.110     -33.570     -36.879
  C       34.771     -31.175     -37.562
  O       33.853     -31.985     -36.841
  C       34.519     -29.691     -37.286
  O       33.189     -29.352     -37.767
  C       34.597     -29.318     -35.800
  O       35.196     -28.025     -35.689
  C       33.138     -29.269     -35.395
  O       32.942     -28.455     -34.254
  C       32.456     -28.768     -36.673
  N       31.042     -29.139     -36.700
  C       30.137     -28.125     -37.036
  O       30.545     -26.992     -37.305
  N       28.792     -28.393     -36.997
  C       28.377     -29.558     -36.601
  N       27.031     -29.746     -36.548
  C       29.296     -30.650     -36.211
  C       30.600     -30.377     -36.287
  O       35.239     -34.040     -36.021
  O       32.710     -34.175     -36.390
  H       33.454     -27.623     -34.355
  H       32.838     -35.080     -36.045
  H       28.902     -31.600     -35.884
  H       31.348     -31.114     -36.008
  H       32.537     -27.677     -36.756
  H       32.788     -30.281     -35.150
  H       35.163     -30.045     -35.206
  H       35.232     -29.101     -37.876
  H       26.443     -28.960     -36.801
  H       34.634     -31.380     -38.632
  H       26.593     -30.595     -36.217
  H       35.798     -31.439     -37.282
  P       36.714     -27.868     -35.192
  C       36.310     -28.445     -32.730
  O       36.962     -28.839     -33.933
  O       37.158     -26.452     -34.978
  O       37.572     -28.552     -36.364
  H       38.446     -28.117     -36.418
  H       36.534     -29.149     -31.956
  H       35.252     -28.416     -32.890
  H       36.653     -27.474     -32.440

 6  7  8  9  10  11  12  13  14  15  16  26  30  31  32  33  35 0
 6-311+G(2d,p)
 ****
 37  38 0
 6-311+G(2d,p)
 ****
 1  2  3  4  5  17  18  19  20  21  22  23  24  25 0
 3-21G
 ****
 27  28  29  34  36  39  40  41  42  43  44  45  46 0
 3-21G
 ****


