%nproc=1
%NoSave
%Mem=1900MB
#P OB98/GEN NMR

erre ene a

0 1
  C       89.997    -251.427     474.363
  O       91.178    -250.985     475.004
  H       90.169    -252.408     473.915
  H       89.205    -251.519     475.110
  H       89.679    -250.715     473.597
  P       92.384    -250.493     474.066
  C       92.338    -248.200     475.280
  O       92.309    -248.889     474.039
  C       92.788    -246.751     475.076
  O       94.242    -246.732     474.995
  C       92.236    -246.087     473.809
  O       91.927    -244.722     474.111
  C       93.415    -246.126     472.852
  O       93.356    -245.102     471.861
  C       94.586    -245.975     473.818
  N       98.157    -244.911     470.353
  C       97.210    -244.144     470.937
  N       96.329    -244.499     471.896
  C       96.540    -245.765     472.295
  C       97.469    -246.665     471.796
  C       98.296    -246.194     470.760
  N       99.216    -246.980     470.109
  N       97.332    -247.889     472.422
  C       96.329    -247.739     473.259
  N       95.814    -246.471     473.218
  O       91.875    -250.919     472.604
  O       93.722    -251.071     474.379
  H       94.090    -245.240     471.228
  H       92.146    -251.839     472.420
  H       97.143    -243.117     470.587
  H       95.914    -248.513     473.891
  H       94.762    -244.934     474.114
  H       93.443    -247.096     472.342
  H       91.348    -246.584     473.397
  H       92.513    -246.177     475.969
  H       93.039    -248.702     475.949
  H       99.689    -246.589     469.309
  H       99.253    -247.968     470.327
  H       91.340    -248.224     475.729
  P       90.462    -244.196     473.734
  C       89.256    -244.626     476.004
  O       89.389    -244.981     474.629
  O       90.222    -244.797     472.266
  O       90.327    -242.708     473.745
  H       89.669    -244.187     471.739
  H       88.505    -245.237     476.459
  H       88.974    -243.597     476.081
  H       90.190    -244.778     476.504

 6  7  8  9  10  11  12  13  14  15  25  28  32  33  34  35 0
 6-311+G(2d,p)
 ****
 36  39  40 0
 6-311+G(2d,p)
 ****
 1  2  3  4  5  16  17  18  19  20  21  22  23  24 0
 3-21G
 ****
 26  27  29  30  31  37  38  41  42  43  44  45  46  47 0
 3-21G
 ****
 48 0
 3-21G
 ****


