%nproc=1
%NoSave
%Mem=1900MB
#P OB98/GEN NMR

erre ene a

0 1
  C      -77.152      -8.357     -37.257
  O      -76.514      -9.330     -38.065
  P      -77.212      -9.880     -39.393
  C      -78.315     -11.817     -38.006
  O      -78.447     -10.796     -38.971
  C      -79.679     -12.488     -37.802
  O      -80.617     -11.548     -37.240
  C      -80.255     -12.999     -39.121
  O      -79.932     -14.367     -39.312
  C      -81.740     -12.746     -38.953
  O      -82.346     -13.799     -38.181
  C      -81.742     -11.423     -38.150
  N      -81.590     -10.158     -38.894
  C      -81.782      -8.946     -38.238
  O      -82.049      -8.851     -37.044
  N      -81.680      -7.823     -39.021
  C      -81.367      -7.804     -40.349
  O      -81.516      -6.833     -41.082
  C      -80.913      -9.079     -40.910
  C      -81.064     -10.182     -40.178
  O      -76.145     -10.932     -39.953
  O      -77.564      -8.844     -40.409
  H      -81.947     -13.770     -37.293
  H      -75.607     -10.532     -40.661
  H      -81.957      -6.950     -38.583
  H      -80.521      -9.086     -41.918
  H      -80.770     -11.145     -40.588
  H      -82.651     -11.333     -37.545
  H      -82.251     -12.742     -39.914
  H      -79.888     -12.389     -39.957
  H      -79.563     -13.316     -37.091
  H      -77.951     -11.396     -37.062
  H      -77.576     -12.554     -38.337
  P      -80.128     -15.031     -40.754
  C      -82.472     -15.953     -40.286
  O      -81.709     -15.013     -41.015
  O      -79.460     -16.351     -40.951
  O      -79.551     -13.918     -41.752
  H      -78.629     -14.140     -41.999
  H      -83.532     -15.721     -40.414
  H      -82.224     -15.908     -39.222
  H      -82.282     -16.959     -40.669
  H      -76.527      -8.122     -36.421
  H      -78.087      -8.742     -36.906
  H      -77.324      -7.472     -37.833

 3  4  5  6  7  8  9  10  11  12  13  23  28  29  30  31  32 0
 6-311+G(2d,p)
 ****
 33  34 0
 6-311+G(2d,p)
 ****
 1  2  14  15  16  17  18  19  20  21  22  24  25  26  27 0
 3-21G
 ****
 35  36  37  38  39  40  41  42  43  44  45 0
 3-21G
 ****


