%nproc=1
%NoSave
%Mem=1900MB
#P OB98/GEN NMR

erre ene a

0 1
  C      -39.877    -197.357    -278.586
  O      -39.251    -198.482    -279.161
  H      -40.630    -196.985    -279.288
  H      -39.153    -196.561    -278.404
  H      -40.374    -197.632    -277.652
  P      -37.970    -199.121    -278.428
  C      -35.446    -199.123    -278.881
  O      -36.706    -198.609    -279.292
  C      -34.293    -198.281    -279.431
  O      -34.311    -198.314    -280.883
  C      -34.341    -196.809    -279.004
  O      -33.044    -196.398    -278.558
  C      -34.718    -196.072    -280.282
  O      -34.298    -194.712    -280.266
  C      -34.068    -196.970    -281.340
  N      -34.601    -196.751    -282.679
  C      -33.808    -196.001    -283.553
  O      -32.735    -195.532    -283.168
  N      -34.260    -195.768    -284.827
  C      -35.430    -196.195    -285.185
  N      -35.828    -195.921    -286.455
  C      -36.326    -196.951    -284.278
  C      -35.849    -197.199    -283.057
  O      -38.035    -200.595    -278.228
  O      -37.833    -198.292    -277.066
  H      -33.314    -194.691    -280.302
  H      -37.287    -198.810    -276.422
  H      -37.295    -197.280    -284.619
  H      -36.431    -197.753    -282.331
  H      -32.980    -196.812    -281.369
  H      -35.811    -196.090    -280.399
  H      -35.054    -196.615    -278.206
  H      -33.349    -198.751    -279.129
  H      -35.186    -195.402    -287.043
  H      -35.360    -200.160    -279.228
  H      -36.721    -196.201    -286.839
  H      -35.406    -199.107    -277.786
  P      -32.855    -196.248    -276.972
  C      -32.048    -194.365    -275.384
  O      -32.598    -194.692    -276.654
  O      -31.427    -196.930    -276.710
  O      -33.938    -196.898    -276.173
  H      -31.549    -197.835    -276.367
  H      -31.931    -193.304    -275.308
  H      -31.094    -194.838    -275.276
  H      -32.705    -194.707    -274.612

 6  7  8  9  10  11  12  13  14  15  16  26  30  31  32  33  35 0
 6-311+G(2d,p)
 ****
 37  38 0
 6-311+G(2d,p)
 ****
 1  2  3  4  5  17  18  19  20  21  22  23  24  25 0
 3-21G
 ****
 27  28  29  34  36  39  40  41  42  43  44  45  46 0
 3-21G
 ****


