%nproc=1
%NoSave
%Mem=1900MB
#P OB98/GEN NMR

erre ene a

0 1
  C      279.908    -637.489    -825.086
  O      280.637    -638.216    -826.062
  H      280.200    -637.845    -824.093
  H      278.828    -637.661    -825.221
  H      280.128    -636.420    -825.167
  P      280.297    -637.882    -827.598
  C      282.783    -637.922    -828.347
  O      281.495    -638.514    -828.470
  C      283.799    -638.675    -829.204
  O      284.214    -639.913    -828.557
  C      283.290    -639.055    -830.596
  O      283.432    -637.975    -831.498
  C      284.201    -640.227    -830.932
  O      285.494    -639.768    -831.389
  C      284.344    -640.944    -829.568
  N      283.162    -645.764    -830.533
  C      284.209    -644.993    -830.994
  N      285.051    -645.579    -831.868
  N      284.413    -643.742    -830.648
  C      283.448    -643.263    -829.808
  C      282.367    -643.924    -829.282
  C      282.200    -645.318    -829.619
  O      281.331    -646.089    -829.183
  N      281.630    -643.111    -828.441
  C      282.254    -641.940    -828.516
  N      283.369    -641.987    -829.324
  O      280.565    -636.306    -827.695
  O      278.915    -638.225    -828.047
  H      286.083    -640.535    -831.485
  H      279.886    -635.909    -828.294
  H      283.083    -646.723    -830.805
  H      281.951    -641.052    -827.981
  H      285.327    -641.408    -829.452
  H      283.781    -640.843    -831.732
  H      284.804    -646.411    -832.391
  H      282.252    -639.411    -830.538
  H      285.776    -644.979    -832.274
  H      284.708    -638.041    -829.282
  H      283.091    -637.980    -827.280
  H      282.742    -636.877    -828.649
  P      282.178    -637.618    -832.438
  C      283.348    -635.415    -833.197
  O      282.690    -636.619    -833.593
  O      281.275    -636.662    -831.502
  O      281.411    -638.809    -832.915
  H      280.492    -637.174    -831.180
  H      283.628    -634.859    -834.067
  H      284.223    -635.657    -832.631
  H      282.686    -634.828    -832.596

 6  7  8  9  10  11  12  13  14  15  26  29  33  34 0
 6-311+G(2d,p)
 ****
 36  38  39  40  41 0
 6-311+G(2d,p)
 ****
 1  2  3  4  5  16  17  18  19  20  21  22  23  24  25 0
 3-21G
 ****
 27  28  30  31  32  35  37  42  43  44  45  46  47 0
 3-21G
 ****
 48  49 0
 3-21G
 ****


