%nproc=1
%NoSave
%Mem=1900MB
#P OB98/GEN NMR

erre ene a

0 1
  C      146.333    -741.137     -60.108
  O      145.464    -741.803     -61.009
  P      144.667    -743.122     -60.550
  C      145.629    -744.073     -62.737
  O      144.487    -743.985     -61.899
  C      145.199    -744.471     -64.158
  O      144.601    -745.788     -64.094
  C      144.153    -743.575     -64.820
  O      144.675    -742.421     -65.459
  C      143.600    -744.530     -65.876
  O      144.496    -744.577     -67.003
  C      143.583    -745.860     -65.132
  N      138.629    -746.763     -66.052
  C      139.674    -746.536     -66.875
  N      140.959    -746.286     -66.551
  C      141.139    -746.334     -65.215
  C      140.167    -746.556     -64.249
  C      138.853    -746.782     -64.710
  N      137.795    -747.037     -63.875
  N      140.721    -746.506     -62.987
  C      142.006    -746.261     -63.196
  N      142.298    -746.160     -64.526
  O      143.421    -742.858     -59.774
  O      145.744    -743.969     -59.731
  H      144.510    -743.689     -67.411
  H      145.290    -744.648     -59.188
  H      139.445    -746.557     -67.936
  H      142.744    -746.155     -62.415
  H      143.856    -746.706     -65.792
  H      142.625    -744.205     -66.271
  H      143.347    -743.314     -64.110
  H      146.105    -744.535     -64.780
  H      146.296    -744.837     -62.338
  H      136.930    -747.318     -64.288
  H      137.999    -747.214     -62.891
  H      146.165    -743.116     -62.749
  P      143.910    -741.026     -65.184
  C      144.919    -740.159     -67.447
  O      144.682    -739.923     -66.072
  O      143.732    -740.681     -63.747
  O      142.528    -741.224     -65.971
  H      142.596    -741.279     -66.935
  H      145.302    -739.236     -67.895
  H      143.987    -740.431     -67.964
  H      145.651    -740.948     -67.580
  H      146.768    -740.288     -60.593
  H      147.108    -741.807     -59.799
  H      145.779    -740.813     -59.252

 3  4  5  6  7  8  9  10  11  12  22  25  29  30  31  32 0
 6-311+G(2d,p)
 ****
 33  36  37 0
 6-311+G(2d,p)
 ****
 1  2  13  14  15  16  17  18  19  20  21  23  24  26 0
 3-21G
 ****
 27  28  34  35  38  39  40  41  42  43  44  45  46  47  48 0
 3-21G
 ****


