%nproc=1
%NoSave
%Mem=1900MB
#P OB98/GEN NMR

erre ene a

0 1
  C     -325.289     946.866     692.551
  O     -325.306     947.251     691.162
  P     -325.720     948.722     690.659
  C     -326.583     947.730     688.431
  O     -325.755     948.701     689.057
  C     -326.988     948.183     687.024
  O     -327.594     949.496     687.075
  C     -325.847     948.336     686.037
  O     -325.343     947.096     685.593
  C     -326.510     949.168     684.937
  O     -327.242     948.341     684.022
  C     -327.500     950.055     685.751
  N     -327.104     951.448     685.791
  C     -327.881     952.342     685.057
  O     -328.807     951.934     684.347
  N     -327.590     953.692     685.130
  C     -326.551     954.082     685.787
  N     -326.324     955.427     685.843
  C     -325.624     953.160     686.464
  C     -325.955     951.870     686.426
  O     -324.881     949.815     691.236
  O     -327.253     948.891     691.085
  H     -327.457     949.847     691.197
  H     -327.622     948.942     683.341
  H     -324.740     953.532     686.972
  H     -325.332     951.118     686.914
  H     -328.503     949.972     685.330
  H     -325.791     949.739     684.356
  H     -325.050     948.925     686.505
  H     -327.734     947.464     686.651
  H     -326.986     956.024     685.368
  H     -327.481     947.599     689.046
  H     -325.548     955.842     686.348
  H     -326.048     946.772     688.392
  P     -323.818     946.750     685.970
  C     -322.971     945.539     683.837
  O     -323.406     945.418     685.173
  O     -323.897     946.273     687.494
  O     -322.866     947.898     685.807
  H     -323.131     946.626     687.991
  H     -322.286     944.701     683.615
  H     -322.425     946.474     683.669
  H     -323.818     945.493     683.158
  H     -324.982     945.844     692.634
  H     -326.269     946.979     692.964
  H     -324.603     947.489     693.085

 3  4  5  6  7  8  9  10  11  12  13  24  27  28  29  30  32 0
 6-311+G(2d,p)
 ****
 34  35 0
 6-311+G(2d,p)
 ****
 1  2  14  15  16  17  18  19  20  21  22  23  25  26 0
 3-21G
 ****
 31  33  36  37  38  39  40  41  42  43  44  45  46 0
 3-21G
 ****


