%nproc=1
%NoSave
%Mem=1900MB
#P OB98/GEN NMR

erre ene a

0 1
  C     1434.844    -125.890    -899.335
  O     1434.858    -126.998    -898.455
  P     1433.682    -127.090    -897.375
  C     1434.464    -125.085    -895.885
  O     1434.315    -126.497    -896.005
  C     1435.106    -124.703    -894.565
  O     1434.212    -124.954    -893.475
  C     1436.373    -125.498    -894.245
  O     1437.532    -124.968    -894.895
  C     1436.465    -125.278    -892.735
  O     1437.026    -123.984    -892.475
  C     1434.998    -125.316    -892.315
  N     1434.389    -128.233    -888.165
  C     1434.907    -126.995    -888.315
  N     1435.024    -126.292    -889.465
  C     1434.618    -126.994    -890.525
  C     1434.118    -128.298    -890.505
  C     1433.985    -128.922    -889.245
  N     1433.450    -130.169    -889.085
  N     1433.788    -128.698    -891.795
  C     1434.092    -127.691    -892.545
  N     1434.567    -126.621    -891.835
  O     1433.578    -128.666    -897.065
  O     1432.368    -126.507    -897.785
  H     1438.013    -124.073    -892.535
  H     1432.685    -128.872    -896.695
  H     1435.248    -126.503    -887.415
  H     1433.943    -127.644    -893.625
  H     1434.761    -124.593    -891.525
  H     1437.114    -126.014    -892.245
  H     1436.244    -126.572    -894.435
  H     1435.328    -123.620    -894.585
  H     1433.472    -124.612    -895.945
  H     1433.231    -130.483    -888.145
  H     1432.960    -130.590    -889.865
  H     1435.063    -124.707    -896.735
  P     1438.040    -125.781    -896.185
  C     1438.458    -127.932    -894.785
  O     1439.011    -126.925    -895.595
  O     1439.070    -124.745    -896.865
  O     1436.965    -126.215    -897.125
  H     1439.128    -124.929    -897.835
  H     1439.125    -128.783    -894.735
  H     1437.494    -128.284    -895.185
  H     1438.292    -127.533    -893.765
  H     1435.680    -125.952    -900.000
  H     1434.905    -124.984    -898.769
  H     1433.936    -125.896    -899.902

 3  4  5  6  7  8  9  10  11  12  22  25  29  30  31  32 0
 6-311+G(2d,p)
 ****
 33  36  37 0
 6-311+G(2d,p)
 ****
 1  2  13  14  15  16  17  18  19  20  21  23  24  26 0
 3-21G
 ****
 27  28  34  35  38  39  40  41  42  43  44  45  46  47  48 0
 3-21G
 ****


