%nproc=1
%NoSave
%Mem=1900MB
#P OB98/GEN NMR

erre ene a

0 1
  C      952.377     151.121    -186.765
  O      951.272     151.037    -185.886
  H      952.438     152.141    -187.151
  H      952.249     150.436    -187.610
  H      953.306     150.892    -186.237
  P      950.916     149.613    -185.242
  C      949.231     148.003    -186.372
  O      950.489     148.660    -186.460
  C      949.086     146.963    -187.486
  O      949.066     147.616    -188.773
  C      950.214     145.949    -187.547
  O      950.091     144.996    -186.514
  C      950.033     145.409    -188.960
  O      948.954     144.463    -189.009
  C      949.661     146.704    -189.729
  N      950.800     147.325    -190.398
  C      951.303     146.639    -191.511
  O      950.810     145.574    -191.860
  N      952.373     147.190    -192.181
  C      952.865     148.327    -191.810
  N      953.924     148.813    -192.516
  C      952.333     149.107    -190.669
  C      951.324     148.542    -190.011
  O      949.948     149.623    -184.100
  O      952.341     149.020    -184.803
  H      949.025     144.014    -189.874
  H      952.523     149.230    -183.871
  H      952.770     150.049    -190.398
  H      950.867     149.043    -189.159
  H      948.892     146.489    -190.487
  H      950.922     144.909    -189.332
  H      951.190     146.462    -187.498
  H      948.115     146.464    -187.357
  H      954.237     148.253    -193.307
  H      948.461     148.772    -186.467
  H      954.276     149.757    -192.427
  H      949.121     147.523    -185.393
  P      950.866     143.592    -186.563
  C      950.242     141.181    -187.239
  O      949.822     142.548    -187.201
  O      951.484     143.162    -185.276
  O      951.924     143.784    -187.752
  H      952.689     144.328    -187.446
  H      949.472     140.584    -187.681
  H      950.432     140.838    -186.243
  H      951.136     141.099    -187.821

 6  7  8  9  10  11  12  13  14  15  16  26  30  31  32  33  35 0
 6-311+G(2d,p)
 ****
 37  38 0
 6-311+G(2d,p)
 ****
 1  2  3  4  5  17  18  19  20  21  22  23  24  25 0
 3-21G
 ****
 27  28  29  34  36  39  40  41  42  43  44  45  46 0
 3-21G
 ****


