%nproc=1
%NoSave
%Mem=1900MB
#P OB98/GEN NMR

erre ene a

0 1
  C      496.942    -898.910    -533.235
  O      497.044    -898.270    -534.492
  H      496.986    -900.000    -533.383
  H      496.005    -898.660    -532.738
  H      497.791    -898.620    -532.599
  P      496.886    -896.680    -534.543
  C      499.316    -895.830    -534.784
  O      498.255    -896.130    -533.902
  C      500.203    -894.730    -534.189
  O      499.460    -893.500    -534.016
  C      500.763    -895.040    -532.802
  O      501.817    -896.000    -532.818
  C      501.236    -893.660    -532.394
  O      502.465    -893.340    -533.070
  C      500.061    -892.790    -532.912
  N      499.092    -892.480    -531.885
  C      498.902    -891.130    -531.567
  O      499.537    -890.250    -532.128
  N      498.013    -890.800    -530.566
  C      497.365    -891.730    -529.940
  N      496.523    -891.350    -528.942
  C      497.504    -893.180    -530.256
  C      498.377    -893.460    -531.225
  O      495.632    -896.120    -533.969
  O      497.089    -896.310    -536.091
  H      502.762    -892.480    -532.748
  H      497.008    -895.340    -536.182
  H      496.974    -893.900    -529.700
  H      498.552    -894.490    -531.501
  H      500.460    -891.840    -533.309
  H      501.426    -893.570    -531.317
  H      499.977    -895.360    -532.114
  H      501.020    -894.520    -534.909
  H      496.486    -890.370    -528.731
  H      498.893    -895.520    -535.743
  H      496.210    -892.020    -528.246
  H      499.934    -896.720    -534.946
  P      502.738    -896.140    -531.508
  C      503.070    -898.710    -531.256
  O      502.371    -897.560    -530.830
  O      502.075    -895.080    -530.511
  O      504.212    -895.920    -531.709
  H      502.554    -894.220    -530.558
  H      502.715    -899.563    -530.717
  H      504.116    -898.581    -531.071
  H      502.909    -898.858    -532.303

 6  7  8  9  10  11  12  13  14  15  16  26  30  31  32  33  35 0
 6-311+G(2d,p)
 ****
 37  38 0
 6-311+G(2d,p)
 ****
 1  2  3  4  5  17  18  19  20  21  22  23  24  25 0
 3-21G
 ****
 27  28  29  34  36  39  40  41  42  43  44  45  46 0
 3-21G
 ****


