%nproc=1
%NoSave
%Mem=1900MB
#P OB98/GEN NMR

erre ene a

0 1
  C       57.634     146.178     -26.342
  O       58.797     146.226     -27.144
  H       57.469     145.158     -25.988
  H       57.776     146.834     -25.479
  H       56.763     146.524     -26.906
  P       58.732     145.470     -28.557
  C       60.315     143.570     -27.756
  O       59.026     143.922     -28.238
  C       60.699     142.170     -28.234
  O       62.120     141.970     -28.004
  C       59.949     141.049     -27.509
  O       59.640     140.016     -28.447
  C       60.963     140.541     -26.497
  O       60.716     139.194     -26.115
  C       62.272     140.752     -27.250
  N       65.303     138.135     -24.083
  C       64.324     137.742     -24.925
  N       63.566     138.506     -25.741
  C       63.941     139.795     -25.665
  C       64.918     140.345     -24.853
  C       65.615     139.451     -24.022
  N       66.589     139.845     -23.135
  N       64.982     141.713     -25.033
  C       64.060     141.981     -25.937
  N       63.403     140.856     -26.344
  O       60.077     145.969     -29.274
  O       57.522     145.742     -29.384
  H       61.318     138.969     -25.375
  H       59.935     146.861     -29.643
  H       64.115     136.676     -24.942
  H       63.825     142.966     -26.319
  H       62.490     139.934     -27.950
  H       60.927     141.164     -25.594
  H       59.030     141.394     -27.032
  H       60.544     142.115     -29.318
  H       60.303     143.592     -26.661
  H       66.997     139.147     -22.536
  H       66.792     140.830     -23.032
  H       61.048     144.300     -28.120
  P       58.111     139.908     -28.924
  C       57.092     138.729     -26.854
  O       57.167     139.918     -27.627
  O       57.998     138.407     -29.468
  O       57.745     140.899     -29.982
  H       57.588     138.402     -30.351
  H       56.430     138.882     -26.027
  H       58.066     138.479     -26.489
  H       56.723     137.930     -27.463

 6  7  8  9  10  11  12  13  14  15  25  28  32  33  34  35 0
 6-311+G(2d,p)
 ****
 36  39  40 0
 6-311+G(2d,p)
 ****
 1  2  3  4  5  16  17  18  19  20  21  22  23  24 0
 3-21G
 ****
 26  27  29  30  31  37  38  41  42  43  44  45  46  47 0
 3-21G
 ****
 48 0
 3-21G
 ****


