%nproc=1
%NoSave
%Mem=1900MB
#P OB98/GEN NMR

erre ene a

0 1
  C     -221.638    -896.050    -249.189
  O     -220.650    -895.040    -249.329
  P     -220.113    -894.130    -248.132
  C     -217.573    -894.740    -248.321
  O     -218.777    -894.790    -247.563
  C     -216.304    -894.880    -247.452
  O     -216.159    -893.710    -246.622
  C     -216.400    -896.080    -246.516
  O     -216.111    -897.380    -246.972
  C     -215.647    -895.660    -245.269
  O     -214.300    -896.110    -245.289
  C     -215.704    -894.120    -245.330
  N     -216.128    -892.400    -240.512
  C     -215.025    -892.960    -241.155
  N     -213.919    -893.130    -240.409
  N     -215.031    -893.320    -242.407
  C     -216.246    -893.180    -243.008
  C     -217.402    -892.660    -242.488
  C     -217.372    -892.170    -241.114
  O     -218.308    -891.670    -240.520
  N     -218.442    -892.690    -243.397
  C     -217.892    -893.260    -244.473
  N     -216.554    -893.570    -244.282
  O     -221.130    -893.700    -247.122
  O     -219.574    -892.790    -248.887
  H     -213.889    -895.840    -244.436
  H     -219.745    -892.040    -248.264
  H     -216.063    -892.090    -239.566
  H     -218.425    -893.450    -245.393
  H     -214.725    -893.690    -245.170
  H     -216.111    -896.100    -244.365
  H     -213.881    -892.980    -239.422
  H     -217.481    -896.150    -246.202
  H     -213.193    -893.730    -240.778
  H     -215.403    -894.910    -248.105
  H     -217.568    -893.790    -248.862
  H     -217.590    -895.540    -249.090
  P     -217.147    -898.600    -247.184
  C     -216.913    -898.910    -249.711
  O     -217.727    -898.470    -248.664
  O     -218.396    -898.190    -246.256
  O     -216.622    -899.950    -246.805
  H     -218.965    -898.970    -246.107
  H     -217.283    -898.510    -250.651
  H     -216.944    -900.000    -249.767
  H     -215.876    -898.580    -249.567
  H     -221.816    -896.509    -250.139
  H     -222.546    -895.613    -248.828
  H     -221.297    -896.789    -248.495

 3  4  5  6  7  8  9  10  11  12  23  26  30  31 0
 6-311+G(2d,p)
 ****
 33  35  36  37  38 0
 6-311+G(2d,p)
 ****
 1  2  13  14  15  16  17  18  19  20  21  22  24  25 0
 3-21G
 ****
 27  28  29  32  34  39  40  41  42  43  44  45  46  47  48  49 0
 3-21G
 ****


