%nproc=1
%NoSave
%Mem=1900MB
#P OB98/GEN NMR

erre ene a

0 1
  C     -486.302     -94.111     -51.423
  O     -486.563     -95.463     -51.044
  P     -486.612     -95.801     -49.475
  C     -488.686     -97.358     -49.282
  O     -487.273     -97.258     -49.280
  C     -489.144     -98.761     -48.859
  O     -488.903     -99.726     -49.923
  C     -488.441     -99.290     -47.608
  O     -489.336    -100.159     -46.913
  C     -487.311    -100.121     -48.186
  O     -486.785    -101.045     -47.233
  C     -488.025    -100.744     -49.389
  N     -484.112    -103.809     -50.274
  C     -484.797    -103.560     -49.099
  N     -484.404    -104.250     -48.011
  N     -485.783    -102.706     -49.008
  C     -486.087    -102.112     -50.189
  C     -485.482    -102.267     -51.415
  C     -484.378    -103.210     -51.496
  O     -483.725    -103.460     -52.508
  N     -486.067    -101.471     -52.368
  C     -487.011    -100.830     -51.719
  N     -487.096    -101.204     -50.407
  O     -487.746     -94.809     -48.935
  O     -485.315     -95.586     -48.767
  H     -486.242    -101.705     -47.726
  H     -487.344     -94.099     -48.406
  H     -483.351    -104.475     -50.291
  H     -487.670    -100.080     -52.144
  H     -488.642    -101.609     -49.100
  H     -486.492     -99.466     -48.515
  H     -483.687    -104.965     -48.026
  H     -488.081     -98.516     -46.920
  H     -484.918    -104.119     -47.150
  H     -490.229     -98.738     -48.688
  H     -489.077     -97.138     -50.279
  H     -489.096     -96.591     -48.618
  P     -489.739     -99.743     -45.414
  C     -492.291    -100.024     -45.840
  O     -491.151    -100.447     -45.122
  O     -490.119     -98.193     -45.547
  O     -488.681     -99.981     -44.390
  H     -489.997     -97.740     -44.687
  H     -492.518    -100.759     -46.611
  H     -492.141     -99.041     -46.305
  H     -493.137     -99.955     -45.154
  H     -486.299     -94.034     -52.490
  H     -485.349     -93.811     -51.041
  H     -487.063     -93.475     -51.022

 3  4  5  6  7  8  9  10  11  12  23  26  30  31 0
 6-311+G(2d,p)
 ****
 33  35  36  37  38 0
 6-311+G(2d,p)
 ****
 1  2  13  14  15  16  17  18  19  20  21  22  24  25 0
 3-21G
 ****
 27  28  29  32  34  39  40  41  42  43  44  45  46  47  48  49 0
 3-21G
 ****


