%nproc=1
%NoSave
%Mem=1900MB
#P OB98/GEN NMR

erre ene a

0 1
  C      214.162    -182.200    -127.190
  O      212.853    -181.677    -127.069
  H      214.613    -182.249    -126.195
  H      214.781    -181.559    -127.823
  H      214.122    -183.209    -127.607
  P      212.084    -181.245    -128.409
  C      211.929    -178.910    -127.321
  O      211.229    -179.942    -128.008
  C      210.966    -177.872    -126.747
  O      210.202    -177.249    -127.803
  C      209.926    -178.446    -125.799
  O      210.441    -178.949    -124.589
  C      208.889    -177.334    -125.763
  O      209.236    -176.296    -124.846
  C      208.956    -176.800    -127.216
  N      207.810    -177.212    -128.012
  C      206.701    -176.374    -127.965
  O      206.655    -175.349    -127.282
  N      205.621    -176.770    -128.706
  C      205.528    -177.918    -129.436
  O      204.521    -178.225    -130.065
  C      206.718    -178.786    -129.419
  C      207.786    -178.401    -128.717
  O      211.276    -182.323    -129.068
  O      213.239    -180.644    -129.337
  H      208.511    -175.641    -124.867
  H      212.939    -180.570    -130.277
  H      204.813    -176.165    -128.698
  H      206.673    -179.709    -129.977
  H      208.677    -179.021    -128.693
  H      208.992    -175.702    -127.216
  H      207.899    -177.698    -125.478
  H      209.444    -179.298    -126.298
  H      211.560    -177.088    -126.262
  H      212.598    -178.423    -128.040
  H      212.534    -179.349    -126.518
  P      209.838    -180.209    -123.824
  C      209.800    -179.020    -121.495
  O      210.258    -180.116    -122.280
  O      209.958    -181.534    -124.507
  O      208.266    -179.835    -123.768
  H      207.767    -180.674    -123.836
  H      210.172    -179.116    -120.496
  H      208.730    -179.016    -121.478
  H      210.154    -178.104    -121.920

 6  7  8  9  10  11  12  13  14  15  16  26  31  32  33  34  35 0
 6-311+G(2d,p)
 ****
 36  37 0
 6-311+G(2d,p)
 ****
 1  2  3  4  5  17  18  19  20  21  22  23  24  25 0
 3-21G
 ****
 27  28  29  30  38  39  40  41  42  43  44  45 0
 3-21G
 ****


