%nproc=1
%NoSave
%Mem=1900MB
#P OB98/GEN NMR

erre ene a

0 1
  C     1400.932    -327.359     270.258
  O     1400.749    -326.330     269.253
  P     1399.392    -326.427     268.372
  C     1398.368    -324.252     269.447
  O     1398.251    -325.684     269.213
  C     1397.117    -323.547     268.922
  O     1395.988    -323.933     269.676
  C     1397.208    -322.042     268.993
  O     1398.025    -321.512     267.937
  C     1395.726    -321.662     268.878
  O     1395.329    -321.520     267.508
  C     1395.017    -322.864     269.570
  N     1394.467    -322.514     270.861
  C     1393.128    -322.049     270.851
  O     1392.528    -322.000     269.799
  N     1392.554    -321.706     272.055
  C     1393.237    -321.734     273.162
  N     1392.602    -321.375     274.305
  C     1394.654    -322.174     273.196
  C     1395.201    -322.535     272.031
  O     1398.987    -327.956     268.491
  O     1399.551    -325.971     266.961
  H     1395.802    -320.738     267.160
  H     1398.488    -328.239     267.684
  H     1395.179    -322.213     274.137
  H     1396.240    -322.882     271.976
  H     1394.213    -323.209     268.940
  H     1395.530    -320.685     269.362
  H     1397.612    -321.739     269.972
  H     1396.965    -323.881     267.870
  H     1391.666    -321.067     274.219
  H     1399.271    -323.910     268.914
  H     1393.066    -321.409     275.195
  H     1398.505    -324.074     270.504
  P     1399.410    -320.877     268.346
  C     1400.638    -322.902     267.379
  O     1400.426    -322.122     268.517
  O     1399.173    -320.441     269.866
  O     1399.917    -319.726     267.497
  H     1399.942    -319.916     270.187
  H     1401.454    -323.633     267.574
  H     1400.920    -322.308     266.537
  H     1399.732    -323.483     267.133
  H     1401.855    -327.194     270.773
  H     1400.954    -328.319     269.786
  H     1400.122    -327.323     270.957

 3  4  5  6  7  8  9  10  11  12  13  21  23  27  28  29  30  32 0
 6-311+G(2d,p)
 ****
 34  35 0
 6-311+G(2d,p)
 ****
 1  2  14  15  16  17  18  19  20  22  24  25  26 0
 3-21G
 ****
 31  33  36  37  38  39  40  41  42  43  44  45  46 0
 3-21G
 ****


