%nproc=1
%NoSave
%Mem=1900MB
#P OB98/GEN NMR

erre ene a

0 1
  C      753.291    -447.700     881.113
  O      752.758    -448.027     879.849
  H      752.749    -448.261     881.877
  H      753.173    -446.630     881.316
  H      754.353    -447.972     881.153
  P      753.381    -447.254     878.583
  C      755.106    -449.123     878.174
  O      754.904    -447.757     878.519
  C      756.599    -449.433     878.078
  O      757.162    -448.661     876.983
  C      757.388    -449.063     879.343
  O      758.436    -450.024     879.542
  C      758.014    -447.731     878.993
  O      759.168    -447.440     879.772
  C      758.272    -447.908     877.500
  N      761.271    -443.834     876.867
  C      761.478    -445.033     877.461
  N      760.627    -446.075     877.559
  C      759.473    -445.811     876.919
  C      759.115    -444.639     876.276
  C      760.071    -443.611     876.269
  N      759.861    -442.375     875.715
  N      757.832    -444.733     875.781
  C      757.425    -445.954     876.117
  N      758.373    -446.625     876.821
  O      753.203    -445.776     878.573
  O      752.713    -448.032     877.353
  H      759.239    -446.469     879.865
  H      752.753    -448.995     877.478
  H      762.454    -445.175     877.919
  H      756.448    -446.373     875.889
  H      759.201    -448.463     877.295
  H      757.284    -446.919     879.166
  H      756.764    -449.005     880.237
  H      756.724    -450.493     877.825
  H      754.626    -449.347     877.219
  H      760.609    -441.700     875.756
  H      758.983    -442.191     875.253
  H      754.641    -449.745     878.950
  P      758.194    -451.219     880.588
  C      758.544    -452.940     878.694
  O      757.709    -452.535     879.781
  O      757.367    -450.890     881.775
  O      759.688    -451.618     881.008
  H      759.708    -451.769     881.976
  H      758.132    -453.814     878.234
  H      759.525    -453.158     879.060
  H      758.600    -452.151     877.974

 6  7  8  9  10  11  12  13  14  15  25  28  32  33  34  35 0
 6-311+G(2d,p)
 ****
 36  39  40 0
 6-311+G(2d,p)
 ****
 1  2  3  4  5  16  17  18  19  20  21  22  23  24 0
 3-21G
 ****
 26  27  29  30  31  37  38  41  42  43  44  45  46  47 0
 3-21G
 ****
 48 0
 3-21G
 ****


