%nproc=1
%NoSave
%Mem=1900MB
#P OB98/GEN NMR

erre ene a

0 1
  C     -519.164     246.923     234.522
  O     -518.623     246.842     235.842
  P     -519.285     247.697     237.022
  C     -521.514     246.648     237.808
  O     -520.105     246.720     237.992
  C     -522.236     247.194     239.043
  O     -523.663     247.289     238.825
  C     -522.089     246.289     240.263
  O     -520.803     246.213     240.849
  C     -523.231     246.751     241.149
  O     -522.874     247.914     241.903
  C     -524.321     247.106     240.101
  N     -525.366     246.081     240.012
  C     -526.062     245.819     241.190
  O     -525.805     246.367     242.260
  N     -527.045     244.874     241.096
  C     -527.376     244.156     239.985
  O     -528.250     243.307     239.967
  C     -526.588     244.458     238.780
  C     -525.631     245.394     238.848
  O     -520.006     248.932     236.606
  O     -518.013     248.084     237.930
  H     -522.213     247.640     242.564
  H     -518.124     249.016     238.218
  H     -527.567     244.676     241.941
  H     -526.815     243.907     237.879
  H     -525.038     245.634     237.968
  H     -524.796     248.054     240.354
  H     -523.527     245.984     241.863
  H     -522.333     245.261     239.943
  H     -521.863     248.201     239.244
  H     -521.813     245.614     237.618
  H     -521.786     247.214     236.907
  P     -520.067     244.823     241.171
  C     -519.264     243.796     238.925
  O     -518.939     244.582     240.054
  O     -520.926     243.662     241.543
  O     -519.181     245.237     242.454
  H     -519.105     244.453     243.034
  H     -518.384     243.723     238.292
  H     -520.069     244.274     238.354
  H     -519.569     242.788     239.232
  H     -518.602     246.291     233.867
  H     -519.110     247.934     234.176
  H     -520.186     246.605     234.535

 3  4  5  6  7  8  9  10  11  12  13  23  28  29  30  31  32 0
 6-311+G(2d,p)
 ****
 33  34 0
 6-311+G(2d,p)
 ****
 1  2  14  15  16  17  18  19  20  21  22  24  25  26  27 0
 3-21G
 ****
 35  36  37  38  39  40  41  42  43  44  45 0
 3-21G
 ****


