%nproc=1
%NoSave
%Mem=1900MB
#P OB98/GEN NMR

erre ene a

0 1
  C       38.074      45.273     -46.035
  O       36.905      45.707     -45.361
  P       35.795      46.572     -46.118
  C       33.425      47.521     -45.508
  O       34.523      46.706     -45.165
  C       32.395      47.470     -44.372
  O       31.734      46.188     -44.356
  C       33.051      47.680     -43.010
  O       32.981      49.044     -42.625
  C       32.251      46.757     -42.112
  O       31.019      47.385     -41.712
  C       31.963      45.570     -43.062
  N       33.007      44.541     -43.225
  C       33.267      43.653     -42.186
  O       32.652      43.646     -41.124
  N       34.295      42.770     -42.401
  C       35.033      42.669     -43.545
  O       36.089      42.054     -43.637
  C       34.534      43.438     -44.688
  C       33.577      44.340     -44.475
  O       35.292      45.584     -47.270
  O       36.264      47.880     -46.666
  H       30.481      47.499     -42.516
  H       35.724      45.796     -48.118
  H       34.581      42.217     -41.599
  H       34.999      43.285     -45.653
  H       33.218      44.950     -45.300
  H       31.042      45.052     -42.774
  H       32.791      46.535     -41.193
  H       34.091      47.332     -43.032
  H       31.633      48.240     -44.550
  H       32.978      47.174     -46.445
  H       33.758      48.551     -45.671
  P       33.956      49.593     -41.482
  C       34.845      51.918     -40.873
  O       34.248      51.120     -41.876
  O       35.163      48.759     -41.209
  O       33.000      49.693     -40.201
  H       33.116      48.900     -39.638
  H       35.153      52.868     -41.317
  H       35.723      51.418     -40.455
  H       34.119      52.118     -40.080
  H       38.687      44.712     -45.361
  H       38.618      46.124     -46.389
  H       37.799      44.656     -46.864

 3  4  5  6  7  8  9  10  11  12  13  23  28  29  30  31  32 0
 6-311+G(2d,p)
 ****
 33  34 0
 6-311+G(2d,p)
 ****
 1  2  14  15  16  17  18  19  20  21  22  24  25  26  27 0
 3-21G
 ****
 35  36  37  38  39  40  41  42  43  44  45 0
 3-21G
 ****


