%nproc=1
%NoSave
%Mem=1900MB
#P OB98/GEN NMR

erre ene a

0 1
  C     -262.674    -195.494     -27.749
  O     -263.650    -195.730     -26.753
  H     -261.743    -195.192     -27.257
  H     -262.999    -194.686     -28.409
  H     -262.483    -196.401     -28.331
  P     -265.072    -196.326     -27.187
  C     -267.235    -195.336     -28.198
  O     -266.054    -195.077     -27.448
  C     -268.336    -194.337     -27.829
  O     -268.804    -194.636     -26.482
  C     -267.879    -192.877     -27.845
  O     -268.943    -192.057     -28.341
  C     -267.627    -192.565     -26.385
  O     -267.760    -191.172     -26.092
  C     -268.668    -193.442     -25.689
  N     -266.977    -191.519     -21.330
  C     -267.362    -190.885     -22.491
  N     -267.268    -189.539     -22.507
  N     -267.797    -191.515     -23.550
  C     -267.864    -192.862     -23.391
  C     -267.513    -193.605     -22.288
  C     -267.006    -192.899     -21.133
  O     -266.633    -193.412     -20.078
  N     -267.701    -194.949     -22.520
  C     -268.169    -195.009     -23.751
  N     -268.271    -193.771     -24.330
  O     -265.624    -197.375     -26.271
  O     -264.829    -196.907     -28.657
  H     -267.721    -191.082     -25.115
  H     -264.781    -197.877     -28.646
  H     -266.635    -190.990     -20.550
  H     -268.436    -195.924     -24.275
  H     -269.648    -192.951     -25.625
  H     -266.606    -192.871     -26.113
  H     -266.959    -188.985     -21.716
  H     -266.989    -192.730     -28.466
  H     -267.571    -189.040     -23.337
  H     -269.185    -194.495     -28.502
  H     -267.571    -196.355     -27.976
  H     -267.003    -195.262     -29.267
  P     -268.853    -191.465     -29.829
  C     -268.514    -189.191     -30.982
  O     -268.667    -189.872     -29.745
  O     -269.912    -191.929     -30.769
  O     -267.400    -191.960     -30.314
  H     -267.440    -192.157     -31.270
  H     -268.399    -188.143     -30.800
  H     -269.380    -189.355     -31.589
  H     -267.648    -189.562     -31.489

 6  7  8  9  10  11  12  13  14  15  26  29  33  34 0
 6-311+G(2d,p)
 ****
 36  38  39  40  41 0
 6-311+G(2d,p)
 ****
 1  2  3  4  5  16  17  18  19  20  21  22  23  24  25 0
 3-21G
 ****
 27  28  30  31  32  35  37  42  43  44  45  46  47 0
 3-21G
 ****
 48  49 0
 3-21G
 ****


