%nproc=1
%NoSave
%Mem=1900MB
#P OB98/GEN NMR

erre ene a

0 1
  C     -508.279     153.824     339.625
  O     -508.909     152.896     338.763
  H     -508.095     153.342     340.590
  H     -508.924     154.690     339.782
  H     -507.320     154.148     339.205
  P     -509.100     153.349     337.229
  C     -509.002     150.892     336.302
  O     -509.747     152.088     336.488
  C     -509.900     149.767     335.786
  O     -510.764     149.332     336.865
  C     -510.793     150.178     334.608
  O     -510.892     149.071     333.711
  C     -512.134     150.456     335.255
  O     -513.211     150.323     334.325
  C     -512.136     149.443     336.412
  N     -513.028     149.839     337.502
  C     -514.207     149.097     337.647
  O     -514.459     148.171     336.868
  N     -515.090     149.441     338.642
  C     -514.845     150.484     339.381
  N     -515.769     150.784     340.336
  C     -513.644     151.328     339.224
  C     -512.783     150.937     338.289
  O     -507.580     153.365     336.707
  O     -509.825     154.639     337.054
  H     -514.052     150.552     334.787
  H     -507.054     152.613     337.026
  H     -513.498     152.192     339.861
  H     -511.869     151.495     338.117
  H     -512.441     148.446     336.049
  H     -512.153     151.479     335.655
  H     -510.416     151.056     334.070
  H     -509.270     148.909     335.524
  H     -516.585     150.196     340.399
  H     -508.540     150.591     337.250
  H     -515.714     151.597     340.936
  H     -508.198     151.102     335.586
  P     -509.808     148.907     332.543
  C     -509.838     146.327     332.427
  O     -510.099     147.547     331.735
  O     -508.380     149.101     332.950
  O     -510.244     150.034     331.476
  H     -509.432     150.430     331.107
  H     -510.069     145.499     331.790
  H     -510.445     146.279     333.307
  H     -508.805     146.288     332.703

 6  7  8  9  10  11  12  13  14  15  16  26  30  31  32  33  35 0
 6-311+G(2d,p)
 ****
 37  38 0
 6-311+G(2d,p)
 ****
 1  2  3  4  5  17  18  19  20  21  22  23  24  25 0
 3-21G
 ****
 27  28  29  34  36  39  40  41  42  43  44  45  46 0
 3-21G
 ****


