%nproc=1
%NoSave
%Mem=1900MB
#P OB98/GEN NMR

erre ene a

0 1
  C       29.648     -46.579     -57.032
  O       28.479     -45.822     -57.298
  P       27.294     -45.858     -56.221
  C       25.781     -47.547     -57.486
  O       26.566     -47.286     -56.332
  C       24.844     -48.733     -57.248
  O       25.627     -49.940     -57.054
  C       23.948     -48.569     -56.016
  O       22.682     -49.200     -56.262
  C       24.658     -49.380     -54.953
  O       23.761     -49.796     -53.923
  C       25.228     -50.521     -55.796
  N       26.917     -54.904     -53.930
  C       25.836     -54.660     -54.753
  N       25.051     -55.719     -55.045
  N       25.553     -53.485     -55.249
  C       26.422     -52.517     -54.866
  C       27.537     -52.640     -54.067
  C       27.831     -53.944     -53.515
  O       28.756     -54.220     -52.758
  N       28.190     -51.443     -53.932
  C       27.453     -50.586     -54.609
  N       26.349     -51.183     -55.163
  O       26.221     -44.841     -56.837
  O       27.690     -45.446     -54.843
  H       23.380     -48.986     -53.535
  H       26.232     -44.004     -56.336
  H       27.086     -55.826     -53.563
  H       27.654     -49.527     -54.708
  H       24.466     -51.281     -56.010
  H       25.454     -48.784     -54.492
  H       25.176     -56.635     -54.641
  H       23.782     -47.531     -55.709
  H       24.227     -55.559     -55.610
  H       24.238     -48.885     -58.148
  H       26.442     -47.777     -58.322
  H       25.200     -46.655     -57.744
  P       21.423     -48.579     -55.480
  C       21.543     -49.946     -53.268
  O       21.768     -48.714     -53.922
  O       20.273     -49.666     -55.712
  O       21.025     -47.218     -55.945
  H       19.395     -49.248     -55.646
  H       22.500     -50.341     -52.917
  H       21.072     -50.684     -53.923
  H       20.892     -49.776     -52.406
  H       30.343     -46.455     -57.836
  H       29.390     -47.613     -56.940
  H       30.093     -46.240     -56.120

 3  4  5  6  7  8  9  10  11  12  23  26  30  31 0
 6-311+G(2d,p)
 ****
 33  35  36  37  38 0
 6-311+G(2d,p)
 ****
 1  2  13  14  15  16  17  18  19  20  21  22  24  25 0
 3-21G
 ****
 27  28  29  32  34  39  40  41  42  43  44  45  46  47  48  49 0
 3-21G
 ****


