%nproc=1
%NoSave
%Mem=1900MB
#P OB98/GEN NMR

erre ene a

0 1
  C      -16.924      39.875      20.635
  O      -16.404      40.913      21.483
  P      -17.209      41.525      22.726
  C      -16.542      42.728      24.919
  O      -16.205      42.458      23.561
  C      -15.294      43.144      25.717
  O      -14.322      42.066      25.714
  C      -14.529      44.341      25.157
  O      -15.204      45.563      25.390
  C      -13.201      44.202      25.894
  O      -13.253      44.797      27.196
  C      -13.041      42.675      26.023
  N      -11.990      42.139      25.174
  C      -10.825      41.707      25.821
  O      -10.692      41.867      27.032
  N       -9.836      41.116      25.062
  C       -9.956      41.068      23.771
  N       -8.956      40.459      23.079
  C      -11.111      41.629      23.040
  C      -12.083      42.138      23.800
  O      -17.912      40.502      23.563
  O      -18.252      42.562      22.090
  H      -19.021      42.653      22.677
  H      -14.064      44.460      27.634
  H      -11.153      41.596      21.966
  H      -12.969      42.558      23.347
  H      -12.840      42.405      27.067
  H      -12.379      44.688      25.350
  H      -14.372      44.196      24.083
  H      -15.601      43.334      26.754
  H       -8.184      40.071      23.612
  H      -16.959      41.819      25.361
  H       -8.962      40.344      22.076
  H      -17.304      43.519      24.951
  P      -15.778      46.330      24.107
  C      -18.191      47.167      23.630
  O      -17.114      47.092      24.547
  O      -16.305      45.147      23.160
  O      -14.779      47.183      23.395
  H      -16.103      45.350      22.229
  H      -19.124      47.256      24.191
  H      -18.239      46.282      22.986
  H      -18.069      48.061      23.009
  H      -16.204      39.637      19.880
  H      -17.828      40.212      20.172
  H      -17.127      39.003      21.222

 3  4  5  6  7  8  9  10  11  12  13  24  27  28  29  30  32 0
 6-311+G(2d,p)
 ****
 34  35 0
 6-311+G(2d,p)
 ****
 1  2  14  15  16  17  18  19  20  21  22  23  25  26 0
 3-21G
 ****
 31  33  36  37  38  39  40  41  42  43  44  45  46 0
 3-21G
 ****


