%nproc=1
%NoSave
%Mem=1900MB
#P OB98/GEN NMR

erre ene a

0 1
  C     -688.617     445.575     101.528
  O     -689.753     446.342     101.896
  P     -689.551     447.908     102.165
  C     -691.529     448.588     100.628
  O     -690.139     448.713     100.907
  C     -692.067     449.879     100.001
  O     -692.056     450.943     100.994
  C     -691.259     450.366      98.798
  O     -692.138     450.995      97.854
  C     -690.374     451.446      99.383
  O     -689.941     452.367      98.381
  C     -691.312     452.048     100.432
  N     -688.964     456.360     101.626
  C     -689.812     456.086     100.570
  N     -689.991     457.074      99.671
  N     -690.444     454.950     100.424
  C     -690.161     454.049     101.398
  C     -689.347     454.210     102.501
  C     -688.650     455.468     102.647
  O     -687.866     455.767     103.538
  N     -689.343     453.088     103.287
  C     -690.113     452.231     102.645
  N     -690.608     452.756     101.477
  O     -687.963     448.092     102.018
  O     -690.020     448.373     103.501
  H     -689.536     453.125      98.851
  H     -687.562     448.208     102.899
  H     -688.495     457.248     101.687
  H     -690.329     451.219     102.965
  H     -692.037     452.739      99.982
  H     -689.484     451.000      99.845
  H     -689.486     457.948      99.695
  H     -690.678     449.582      98.290
  H     -690.574     456.885      98.866
  H     -693.117     449.715      99.722
  H     -692.064     448.393     101.564
  H     -691.697     447.745      99.954
  P     -692.086     450.409      96.357
  C     -693.852     448.536      95.968
  O     -692.573     448.888      96.460
  O     -690.518     450.285      96.057
  O     -692.800     451.255      95.348
  H     -690.357     450.338      95.101
  H     -693.731     447.824      95.143
  H     -694.414     449.406      95.607
  H     -694.419     448.055      96.770
  H     -688.907     444.555     101.383
  H     -687.883     445.630     102.304
  H     -688.205     445.961     100.619

 3  4  5  6  7  8  9  10  11  12  23  26  30  31 0
 6-311+G(2d,p)
 ****
 33  35  36  37  38 0
 6-311+G(2d,p)
 ****
 1  2  13  14  15  16  17  18  19  20  21  22  24  25 0
 3-21G
 ****
 27  28  29  32  34  39  40  41  42  43  44  45  46  47  48  49 0
 3-21G
 ****


