%nproc=1
%NoSave
%Mem=1900MB
#P OB98/GEN NMR

erre ene a

0 1
  C     -117.639    -207.361     -95.358
  O     -117.625    -207.229     -93.949
  H     -118.502    -207.967     -95.645
  H     -116.727    -207.860     -95.698
  H     -117.726    -206.378     -95.829
  P     -116.410    -206.386     -93.323
  C     -113.985    -206.727     -94.175
  O     -115.098    -207.295     -93.503
  C     -112.790    -207.676     -94.121
  O     -113.130    -208.960     -94.689
  C     -111.559    -207.181     -94.868
  O     -110.807    -206.274     -94.077
  C     -110.821    -208.486     -95.124
  O     -110.078    -208.910     -93.963
  C     -111.976    -209.454     -95.419
  N     -111.868    -212.565     -99.394
  C     -111.513    -212.787     -98.080
  N     -111.003    -214.005     -97.791
  N     -111.634    -211.894     -97.134
  C     -112.128    -210.712     -97.574
  C     -112.532    -210.375     -98.846
  C     -112.419    -211.386     -99.879
  O     -112.774    -211.272    -101.047
  N     -112.993    -209.086     -98.895
  C     -112.834    -208.633     -97.665
  N     -112.296    -209.578     -96.832
  O     -116.686    -206.449     -91.746
  O     -116.293    -204.981     -93.804
  H     -109.669    -208.135     -93.544
  H     -116.349    -205.635     -91.330
  H     -111.765    -213.298    -100.074
  H     -113.089    -207.636     -97.335
  H     -111.768    -210.467     -95.053
  H     -110.099    -208.389     -95.938
  H     -110.585    -214.587     -98.507
  H     -111.842    -206.728     -95.828
  H     -110.720    -214.168     -96.836
  H     -112.553    -207.843     -93.061
  H     -113.719    -205.783     -93.692
  H     -114.259    -206.529     -95.218
  P     -109.747    -205.329     -94.828
  C     -107.923    -205.922     -96.586
  O     -108.602    -206.297     -95.395
  O     -109.019    -204.563     -93.627
  O     -110.345    -204.388     -95.817
  H     -108.553    -203.775     -93.966
  H     -107.195    -206.667     -96.831
  H     -107.435    -204.981     -96.437
  H     -108.628    -205.836     -97.386

 6  7  8  9  10  11  12  13  14  15  26  29  33  34 0
 6-311+G(2d,p)
 ****
 36  38  39  40  41 0
 6-311+G(2d,p)
 ****
 1  2  3  4  5  16  17  18  19  20  21  22  23  24  25 0
 3-21G
 ****
 27  28  30  31  32  35  37  42  43  44  45  46  47 0
 3-21G
 ****
 48  49 0
 3-21G
 ****


