%nproc=1
%NoSave
%Mem=1900MB
#P OB98/GEN NMR

erre ene a

0 1
  C     -979.938    -862.836     285.347
  O     -980.123    -863.687     286.454
  H     -979.820    -863.442     284.447
  H     -979.028    -862.226     285.476
  H     -980.799    -862.172     285.218
  P     -980.321    -863.032     287.901
  C     -978.148    -864.103     288.804
  O     -979.570    -864.000     288.929
  C     -977.598    -865.017     289.894
  O     -977.765    -864.418     291.197
  C     -978.277    -866.390     289.963
  O     -977.754    -867.263     288.966
  C     -977.913    -866.805     291.379
  O     -976.538    -867.253     291.423
  C     -978.070    -865.485     292.138
  N     -981.658    -867.134     295.329
  C     -980.430    -867.700     294.983
  N     -980.141    -868.883     295.565
  N     -979.584    -867.147     294.167
  C     -980.038    -865.997     293.622
  C     -981.235    -865.352     293.867
  C     -982.146    -865.938     294.808
  O     -983.217    -865.467     295.164
  N     -981.363    -864.224     293.077
  C     -980.234    -864.180     292.399
  N     -979.400    -865.240     292.689
  O     -981.728    -862.697     288.295
  O     -979.390    -861.734     287.866
  H     -976.296    -867.291     292.380
  H     -979.882    -860.945     287.577
  H     -982.287    -867.617     295.955
  H     -979.966    -863.401     291.694
  H     -977.365    -865.396     292.974
  H     -978.541    -867.627     291.749
  H     -980.867    -869.488     295.956
  H     -979.364    -866.299     289.892
  H     -979.281    -869.347     295.294
  H     -976.521    -865.130     289.718
  H     -977.743    -863.089     288.910
  H     -977.880    -864.481     287.826
  P     -978.705    -867.959     287.870
  C     -977.137    -869.932     288.353
  O     -977.915    -869.236     287.387
  O     -979.163    -867.042     286.782
  O     -979.884    -868.578     288.732
  H     -980.639    -867.946     288.885
  H     -976.660    -870.770     287.890
  H     -977.772    -870.275     289.143
  H     -976.394    -869.275     288.753

 6  7  8  9  10  11  12  13  14  15  26  29  33  34 0
 6-311+G(2d,p)
 ****
 36  38  39  40  41 0
 6-311+G(2d,p)
 ****
 1  2  3  4  5  16  17  18  19  20  21  22  23  24  25 0
 3-21G
 ****
 27  28  30  31  32  35  37  42  43  44  45  46  47 0
 3-21G
 ****
 48  49 0
 3-21G
 ****


