%nproc=1
%NoSave
%Mem=1900MB
#P OB98/GEN NMR

erre ene a

0 1
  C       25.703      82.689     203.028
  O       24.321      83.071     203.007
  P       23.823      84.593     203.111
  C       23.762      86.381     201.239
  O       23.376      85.072     201.645
  C       23.016      86.798     199.968
  O       23.156      85.781     198.947
  C       21.512      86.966     200.122
  O       21.168      88.142     200.829
  C       21.058      86.954     198.664
  O       21.177      88.253     198.069
  C       22.068      85.985     198.015
  N       21.469      84.720     197.624
  C       21.479      84.416     196.259
  O       21.904      85.233     195.443
  N       20.992      83.197     195.855
  C       20.447      82.401     196.721
  N       19.998      81.200     196.266
  C       20.293      82.744     198.148
  C       20.823      83.906     198.526
  O       24.804      85.508     203.767
  O       22.450      84.535     203.931
  H       22.304      85.386     204.385
  H       22.126      88.490     198.094
  H       19.793      82.070     198.828
  H       20.768      84.228     199.561
  H       22.526      86.452     197.136
  H       20.014      86.643     198.559
  H       21.102      86.087     200.637
  H       23.468      87.728     199.598
  H       20.128      80.992     195.284
  H       24.838      86.375     201.031
  H       19.578      80.500     196.861
  H       23.569      87.084     202.055
  P       21.416      88.138     202.414
  C       23.496      88.361     203.950
  O       22.934      88.580     202.671
  O       21.402      86.581     202.793
  O       20.399      88.896     203.201
  H       20.949      86.457     203.648
  H       24.578      88.244     203.844
  H       23.088      87.465     204.425
  H       23.297      89.229     204.584
  H       25.780      81.625     202.945
  H       26.147      83.008     203.947
  H       26.213      83.149     202.207

 3  4  5  6  7  8  9  10  11  12  13  24  27  28  29  30  32 0
 6-311+G(2d,p)
 ****
 34  35 0
 6-311+G(2d,p)
 ****
 1  2  14  15  16  17  18  19  20  21  22  23  25  26 0
 3-21G
 ****
 31  33  36  37  38  39  40  41  42  43  44  45  46 0
 3-21G
 ****


