%nproc=1
%NoSave
%Mem=1900MB
#P OB98/GEN NMR

erre ene a

0 1
  C      317.107    -264.156      25.980
  O      316.838    -265.483      25.572
  H      316.851    -263.479      25.161
  H      318.171    -264.042      26.215
  H      316.501    -263.899      26.853
  P      317.205    -266.639      26.626
  C      319.407    -267.631      27.573
  O      318.808    -266.639      26.750
  C      320.673    -267.086      28.230
  O      320.423    -265.797      28.830
  C      321.245    -267.979      29.327
  O      322.057    -269.006      28.778
  C      322.047    -266.969      30.138
  O      323.322    -266.697      29.517
  C      321.142    -265.727      30.090
  N      320.269    -263.518      34.551
  C      321.377    -263.462      33.727
  N      322.424    -262.732      34.175
  N      321.462    -264.076      32.580
  C      320.364    -264.823      32.288
  C      319.206    -264.958      33.019
  C      319.103    -264.224      34.260
  O      318.117    -264.169      34.995
  N      318.314    -265.781      32.380
  C      318.946    -266.166      31.284
  N      320.201    -265.616      31.189
  O      316.901    -267.990      25.818
  O      316.455    -266.599      27.910
  H      323.877    -267.495      29.567
  H      316.521    -268.644      26.436
  H      320.244    -262.999      35.409
  H      318.540    -266.834      30.536
  H      321.729    -264.802      30.084
  H      322.271    -267.342      31.144
  H      322.531    -262.484      35.147
  H      320.445    -268.397      29.953
  H      323.263    -262.750      33.604
  H      321.416    -266.931      27.433
  H      319.663    -268.495      26.953
  H      318.692    -267.939      28.344
  P      322.846    -269.965      29.788
  C      325.038    -269.852      31.183
  O      324.115    -269.157      30.353
  O      323.498    -271.054      28.806
  O      321.991    -270.625      30.817
  H      323.014    -271.896      28.877
  H      325.823    -269.187      31.478
  H      325.454    -270.676      30.642
  H      324.532    -270.215      32.053

 6  7  8  9  10  11  12  13  14  15  26  29  33  34 0
 6-311+G(2d,p)
 ****
 36  38  39  40  41 0
 6-311+G(2d,p)
 ****
 1  2  3  4  5  16  17  18  19  20  21  22  23  24  25 0
 3-21G
 ****
 27  28  30  31  32  35  37  42  43  44  45  46  47 0
 3-21G
 ****
 48  49 0
 3-21G
 ****


