%nproc=1
%NoSave
%Mem=1900MB
#P OB98/GEN NMR

erre ene a

0 1
  C     -344.541     -25.716     326.907
  O     -344.320     -25.389     325.548
  H     -343.831     -25.150     327.518
  H     -344.360     -26.786     327.052
  H     -345.558     -25.463     327.218
  P     -345.468     -25.706     324.479
  C     -344.183     -26.691     322.473
  O     -344.836     -25.546     323.015
  C     -342.984     -26.304     321.596
  O     -343.423     -25.472     320.503
  C     -341.937     -25.477     322.364
  O     -341.007     -26.235     323.110
  C     -341.257     -24.720     321.233
  O     -340.212     -25.514     320.645
  C     -342.394     -24.506     320.223
  N     -342.398     -19.776     318.270
  C     -341.595     -20.856     317.940
  N     -340.629     -20.628     317.017
  N     -341.708     -22.041     318.486
  C     -342.659     -22.094     319.459
  C     -343.506     -21.091     319.882
  C     -343.400     -19.801     319.232
  O     -344.080     -18.808     319.487
  N     -344.328     -21.527     320.891
  C     -343.926     -22.754     321.128
  N     -342.932     -23.153     320.270
  O     -346.443     -24.433     324.580
  O     -346.224     -26.981     324.718
  H     -339.592     -25.779     321.347
  H     -347.346     -24.681     324.307
  H     -342.276     -18.896     317.792
  H     -344.350     -23.406     321.895
  H     -342.057     -24.678     319.197
  H     -340.792     -23.791     321.589
  H     -340.426     -19.709     316.659
  H     -342.442     -24.746     323.008
  H     -339.871     -21.299     316.959
  H     -342.550     -27.203     321.159
  H     -344.917     -27.224     321.876
  H     -343.861     -27.365     323.270
  P     -340.968     -26.086     324.705
  C     -338.528     -25.182     324.673
  O     -339.417     -26.168     325.141
  O     -341.568     -27.487     325.201
  O     -341.713     -24.930     325.255
  H     -342.513     -27.393     325.402
  H     -337.546     -25.379     325.050
  H     -338.853     -24.220     325.010
  H     -338.509     -25.198     323.603

 6  7  8  9  10  11  12  13  14  15  26  29  33  34 0
 6-311+G(2d,p)
 ****
 36  38  39  40  41 0
 6-311+G(2d,p)
 ****
 1  2  3  4  5  16  17  18  19  20  21  22  23  24  25 0
 3-21G
 ****
 27  28  30  31  32  35  37  42  43  44  45  46  47 0
 3-21G
 ****
 48  49 0
 3-21G
 ****


