%nproc=1
%NoSave
%Mem=1900MB
#P OB98/GEN NMR

erre ene a

0 1
  C      -42.516     333.419      44.961
  O      -41.998     334.095      43.835
  P      -40.469     334.542      43.709
  C      -40.798     337.032      43.039
  O      -40.376     336.112      44.041
  C      -40.067     338.382      43.119
  O      -39.926     338.769      44.503
  C      -38.645     338.246      42.563
  O      -38.417     338.333      41.170
  C      -37.797     339.184      43.414
  O      -37.569     340.444      42.781
  C      -38.630     339.362      44.685
  N      -37.290     340.175      49.509
  C      -38.158     340.899      48.712
  N      -38.564     342.087      49.210
  N      -38.560     340.502      47.530
  C      -37.993     339.339      47.130
  C      -37.136     338.528      47.836
  C      -36.728     338.958      49.150
  O      -35.894     338.387      49.853
  N      -36.706     337.465      47.083
  C      -37.271     337.649      45.908
  N      -38.030     338.798      45.879
  O      -39.707     334.012      42.537
  O      -39.835     333.877      45.037
  H      -37.341     340.274      41.849
  H      -38.921     333.609      44.820
  H      -36.951     340.571      50.374
  H      -37.138     337.012      45.044
  H      -38.801     340.428      44.887
  H      -36.808     338.747      43.597
  H      -38.156     342.491      50.041
  H      -38.300     337.238      42.825
  H      -39.057     342.718      48.585
  H      -40.651     339.175      42.646
  H      -41.879     337.169      43.154
  H      -40.631     336.595      42.052
  P      -37.243     337.616      40.355
  C      -35.692     339.633      40.065
  O      -35.867     338.369      40.682
  O      -37.513     338.025      38.830
  O      -37.194     336.130      40.498
  H      -37.091     337.376      38.236
  H      -34.634     339.905      40.105
  H      -36.273     340.388      40.609
  H      -36.019     339.606      39.022
  H      -43.558     333.227      44.814
  H      -42.385     334.025      45.833
  H      -41.998     332.492      45.090

 3  4  5  6  7  8  9  10  11  12  23  26  30  31 0
 6-311+G(2d,p)
 ****
 33  35  36  37  38 0
 6-311+G(2d,p)
 ****
 1  2  13  14  15  16  17  18  19  20  21  22  24  25 0
 3-21G
 ****
 27  28  29  32  34  39  40  41  42  43  44  45  46  47  48  49 0
 3-21G
 ****


