%nproc=1
%NoSave
%Mem=1900MB
#P OB98/GEN NMR

erre ene a

0 1
  C      191.793    -477.115    -580.322
  O      192.388    -475.996    -579.700
  H      192.574    -477.741    -580.752
  H      191.128    -476.777    -581.129
  H      191.221    -477.703    -579.601
  P      191.499    -475.053    -578.769
  C      192.714    -475.890    -576.647
  O      191.464    -475.749    -577.315
  C      192.550    -475.611    -575.145
  O      192.063    -474.246    -574.981
  C      191.554    -476.545    -574.426
  O      192.027    -476.706    -573.090
  C      190.288    -475.702    -574.473
  O      189.316    -476.195    -573.595
  C      190.881    -474.325    -574.155
  N      189.974    -473.220    -574.419
  C      189.202    -472.745    -573.362
  O      189.267    -473.195    -572.225
  N      188.326    -471.745    -573.664
  C      188.127    -471.172    -574.885
  O      187.348    -470.258    -575.094
  C      188.953    -471.732    -575.986
  C      189.815    -472.707    -575.698
  O      190.158    -474.671    -579.315
  O      192.422    -473.768    -578.528
  H      192.160    -473.060    -579.157
  H      189.617    -476.116    -572.663
  H      187.774    -471.386    -572.896
  H      188.814    -471.317    -576.963
  H      190.436    -473.139    -576.487
  H      191.211    -474.272    -573.123
  H      189.854    -475.713    -575.473
  H      191.460    -477.517    -574.924
  H      193.547    -475.655    -574.671
  H      193.422    -475.178    -577.092
  H      193.092    -476.905    -576.802
  P      191.943    -478.104    -572.284
  C      193.908    -477.280    -570.817
  O      193.372    -478.364    -571.558
  O      191.475    -479.244    -573.122
  O      190.941    -477.844    -571.069
  H      190.420    -478.647    -570.899
  H      194.845    -477.570    -570.388
  H      193.227    -477.010    -570.037
  H      194.057    -476.443    -571.467

 6  7  8  9  10  11  12  13  14  15  16  27  31  32  33  34  35 0
 6-311+G(2d,p)
 ****
 36  37 0
 6-311+G(2d,p)
 ****
 1  2  3  4  5  17  18  19  20  21  22  23  24  25 0
 3-21G
 ****
 26  28  29  30  38  39  40  41  42  43  44  45 0
 3-21G
 ****


