%nproc=1
%NoSave
%Mem=1900MB
#P OB98/GEN NMR

erre ene a

0 1
  C      -42.913      38.739    -361.495
  O      -43.505      38.518    -360.226
  H      -42.858      37.786    -362.027
  H      -41.904      39.138    -361.372
  H      -43.522      39.437    -362.080
  P      -43.715      39.812    -359.301
  C      -46.272      40.240    -358.989
  O      -45.102      39.579    -358.523
  C      -47.431      40.016    -358.011
  O      -47.647      38.578    -357.864
  C      -47.161      40.575    -356.601
  O      -48.424      40.960    -356.018
  C      -46.632      39.346    -355.875
  O      -46.677      39.536    -354.480
  C      -47.561      38.282    -356.456
  N      -46.272      34.848    -352.907
  C      -46.802      36.091    -352.812
  N      -47.125      36.940    -353.807
  C      -46.877      36.380    -355.006
  C      -46.336      35.130    -355.261
  C      -46.022      34.342    -354.141
  N      -45.460      33.087    -354.229
  N      -46.203      34.926    -356.625
  C      -46.661      36.031    -357.180
  N      -47.078      36.937    -356.243
  O      -44.063      40.965    -360.357
  O      -42.560      40.176    -358.428
  H      -46.385      40.437    -354.239
  H      -43.242      41.434    -360.616
  H      -46.991      36.449    -351.802
  H      -46.706      36.238    -358.245
  H      -48.575      38.342    -356.033
  H      -45.588      39.150    -356.147
  H      -46.480      41.428    -356.592
  H      -48.353      40.433    -358.436
  H      -46.532      39.838    -359.974
  H      -46.073      41.312    -359.076
  H      -45.235      32.604    -353.375
  H      -45.235      32.716    -355.137
  P      -49.044      42.400    -356.378
  C      -49.847      42.191    -358.852
  O      -50.204      42.252    -357.477
  O      -47.857      43.071    -357.224
  O      -49.393      43.263    -355.204
  H      -47.711      43.986    -356.917
  H      -50.732      42.093    -359.446
  H      -49.211      41.347    -359.018
  H      -49.330      43.087    -359.126

 6  7  8  9  10  11  12  13  14  15  25  28  32  33  34  35 0
 6-311+G(2d,p)
 ****
 36  37  40 0
 6-311+G(2d,p)
 ****
 1  2  3  4  5  16  17  18  19  20  21  22  23  24 0
 3-21G
 ****
 26  27  29  30  31  38  39 41  42  43  44  45  46  47  48 0
 3-21G
 ****


