%nproc=1
%NoSave
%Mem=1900MB
#P OB98/GEN NMR

erre ene a

0 1
  C       50.794     -38.860    -101.751
  O       50.609     -37.519    -102.152
  H       51.865     -39.046    -101.639
  H       50.397     -39.542    -102.505
  H       50.305     -39.041    -100.789
  P       49.121     -37.000    -102.450
  C       47.261     -37.652    -104.117
  O       48.653     -37.695    -103.819
  C       46.985     -38.360    -105.450
  O       47.471     -37.507    -106.513
  C       47.700     -39.717    -105.554
  O       46.817     -40.783    -105.901
  C       48.869     -39.423    -106.490
  O       49.341     -40.545    -107.202
  C       48.340     -38.282    -107.362
  N       49.389     -37.442    -107.935
  C       49.984     -37.877    -109.118
  O       49.686     -38.902    -109.720
  N       50.971     -37.064    -109.617
  C       51.419     -35.904    -109.056
  O       52.304     -35.217    -109.553
  C       50.772     -35.513    -107.794
  C       49.806     -36.285    -107.298
  O       48.932     -35.520    -102.406
  O       48.224     -37.739    -101.348
  H       48.581     -40.905    -107.709
  H       47.970     -37.100    -100.653
  H       51.398     -37.359    -110.479
  H       51.113     -34.603    -107.317
  H       49.307     -36.028    -106.368
  H       47.746     -38.677    -108.188
  H       49.708     -39.050    -105.882
  H       48.091     -40.025    -104.578
  H       45.900     -38.462    -105.577
  H       46.963     -36.600    -104.176
  H       46.697     -38.140    -103.313
  P       46.294     -41.905    -104.893
  C       46.980     -44.390    -104.366
  O       47.336     -43.119    -104.897
  O       44.849     -42.260    -105.004
  O       46.522     -41.244    -103.438
  H       45.810     -41.596    -102.865
  H       47.808     -45.061    -104.461
  H       46.141     -44.779    -104.905
  H       46.723     -44.285    -103.333

 6  7  8  9  10  11  12  13  14  15  16  26  31  32  33  34  35 0
 6-311+G(2d,p)
 ****
 36  37 0
 6-311+G(2d,p)
 ****
 1  2  3  4  5  17  18  19  20  21  22  23  24  25 0
 3-21G
 ****
 27  28  29  30  38  39  40  41  42  43  44  45 0
 3-21G
 ****


