%nproc=1
%NoSave
%Mem=1900MB
#P OB98/GEN NMR

erre ene a

0 1
  C     -107.905    -371.686      60.385
  O     -108.455    -370.436      60.809
  P     -110.036    -370.412      61.120
  C     -110.127    -369.362      63.500
  O     -110.311    -369.174      62.104
  C     -110.654    -368.156      64.279
  O     -109.834    -366.998      64.062
  C     -112.061    -367.729      63.888
  O     -113.048    -368.548      64.494
  C     -112.109    -366.316      64.459
  O     -112.430    -366.370      65.864
  C     -110.669    -365.827      64.250
  N     -110.540    -361.025      62.636
  C     -110.723    -361.526      63.907
  N     -110.864    -360.614      64.897
  N     -110.762    -362.802      64.190
  C     -110.577    -363.595      63.108
  C     -110.387    -363.221      61.797
  C     -110.376    -361.804      61.492
  O     -110.250    -361.312      60.378
  N     -110.224    -364.314      60.978
  C     -110.290    -365.345      61.798
  N     -110.514    -364.958      63.097
  O     -110.232    -371.686      62.067
  O     -110.891    -370.480      59.900
  H     -113.300    -366.812      65.942
  H     -111.146    -372.028      61.986
  H     -110.525    -360.032      62.472
  H     -110.172    -366.380      61.506
  H     -110.284    -365.299      65.134
  H     -112.874    -365.694      63.984
  H     -110.770    -359.616      64.761
  H     -112.174    -367.691      62.796
  H     -110.961    -360.961      65.843
  H     -110.624    -368.408      65.351
  H     -109.063    -369.497      63.718
  H     -110.636    -370.282      63.804
  P     -114.360    -368.877      63.631
  C     -114.381    -371.469      63.555
  O     -114.887    -370.297      64.162
  O     -113.772    -369.196      62.178
  O     -115.369    -367.773      63.594
  H     -114.427    -368.974      61.487
  H     -113.302    -371.399      63.394
  H     -114.887    -371.634      62.598
  H     -114.585    -372.318      64.214
  H     -106.855    -371.573      60.211
  H     -108.385    -371.998      59.481
  H     -108.064    -372.422      61.146

 3  4  5  6  7  8  9  10  11  12  23  26  30  31  33  0
 6-311+G(2d,p)
 ****
 35  36  37  38 0
 6-311+G(2d,p)
 ****
 1  2  13  14  15  16  17  18  19  20  21  22  24  25  27  28  29 0
 3-21G
 ****
 32  34  39  40  41  42  43  44  45  46  47  48  49 0
 3-21G
 ****


