%nproc=1
%NoSave
%Mem=1900MB
#P OB98/GEN NMR

erre ene a

0 1
  C     -542.002    -173.439    -449.673
  O     -540.663    -173.503    -450.125
  H     -542.055    -172.730    -448.838
  H     -542.326    -174.420    -449.316
  H     -542.668    -173.094    -450.468
  P     -540.337    -174.349    -451.443
  C     -538.534    -172.573    -451.950
  O     -538.849    -173.962    -451.889
  C     -537.064    -172.384    -452.303
  O     -536.240    -172.655    -451.147
  C     -536.566    -173.337    -453.386
  O     -537.010    -172.937    -454.670
  C     -535.064    -173.250    -453.172
  O     -534.516    -172.091    -453.807
  C     -534.964    -173.128    -451.634
  N     -534.596    -174.396    -451.009
  C     -533.413    -174.980    -451.454
  O     -532.697    -174.492    -452.320
  N     -533.121    -176.211    -450.915
  C     -533.941    -176.940    -450.102
  O     -533.746    -178.120    -449.844
  C     -535.137    -176.248    -449.610
  C     -535.417    -175.026    -450.089
  O     -541.365    -174.271    -452.530
  O     -540.172    -175.846    -450.905
  H     -540.984    -176.353    -451.103
  H     -534.610    -172.242    -454.765
  H     -532.282    -176.662    -451.269
  H     -535.774    -176.763    -448.910
  H     -536.311    -174.508    -449.770
  H     -534.215    -172.371    -451.358
  H     -534.550    -174.126    -453.573
  H     -536.899    -174.355    -453.167
  H     -536.908    -171.337    -452.599
  H     -538.737    -172.126    -450.971
  H     -539.179    -172.090    -452.693
  P     -537.412    -174.044    -455.760
  C     -539.424    -172.691    -456.609
  O     -538.193    -173.317    -456.957
  O     -538.095    -175.256    -455.216
  O     -536.019    -174.443    -456.436
  H     -535.933    -175.422    -456.444
  H     -539.854    -172.241    -457.480
  H     -539.245    -171.938    -455.870
  H     -540.098    -173.423    -456.216

 6  7  8  9  10  11  12  13  14  15  16  27  31  32  33  34  35 0
 6-311+G(2d,p)
 ****
 36  37 0
 6-311+G(2d,p)
 ****
 1  2  3  4  5  17  18  19  20  21  22  23  24  25 0
 3-21G
 ****
 26  28  29  30  38  39  40  41  42  43  44  45 0
 3-21G
 ****


