%nproc=1
%NoSave
%Mem=1900MB
#P OB98/GEN NMR

erre ene a

0 1
  C      -56.154     -64.352      75.583
  O      -55.389     -63.641      74.638
  P      -53.889     -64.018      74.244
  C      -51.571     -64.057      75.457
  O      -52.987     -63.972      75.569
  C      -50.917     -64.248      76.834
  O      -51.512     -65.408      77.470
  C      -49.409     -64.527      76.712
  O      -48.614     -63.851      77.677
  C      -49.346     -66.051      76.696
  O      -48.070     -66.570      77.037
  C      -50.492     -66.416      77.637
  N      -51.532     -70.994      79.595
  C      -51.134     -69.840      80.243
  N      -50.799     -69.974      81.545
  N      -51.041     -68.674      79.653
  C      -51.297     -68.716      78.324
  C      -51.701     -69.799      77.575
  C      -51.831     -71.072      78.244
  O      -52.070     -72.144      77.686
  N      -51.803     -69.487      76.242
  C      -51.427     -68.223      76.179
  N      -51.079     -67.723      77.415
  O      -53.344     -63.395      73.000
  O      -54.013     -65.609      73.980
  H      -48.093     -67.533      76.881
  H      -53.384     -65.831      73.264
  H      -51.504     -71.880      80.086
  H      -51.361     -67.636      75.270
  H      -50.173     -66.403      78.679
  H      -49.561     -66.377      75.671
  H      -50.720     -70.883      81.983
  H      -49.025     -64.146      75.758
  H      -50.275     -69.213      81.968
  H      -51.134     -63.374      77.458
  H      -51.240     -63.112      75.010
  H      -51.286     -64.867      74.779
  P      -47.061     -63.478      77.612
  C      -44.796     -64.680      77.706
  O      -46.203     -64.824      77.747
  O      -46.757     -62.723      78.989
  O      -46.677     -62.614      76.455
  H      -46.146     -61.978      78.828
  H      -44.346     -65.662      77.530
  H      -44.437     -64.292      78.664
  H      -44.497     -64.002      76.901
  H      -57.122     -63.904      75.668
  H      -55.663     -64.324      76.533
  H      -56.258     -65.368      75.265

 3  4  5  6  7  8  9  10  11  12  23  26  30  31 0
 6-311+G(2d,p)
 ****
 33  35  36  37  38 0
 6-311+G(2d,p)
 ****
 1  2  13  14  15  16  17  18  19  20  21  22  24  25 0
 3-21G
 ****
 27  28  29  32  34  39  40  41  42  43  44  45  46  47  48  49 0
 3-21G
 ****


