%nproc=1
%NoSave
%Mem=1900MB
#P OB98/GEN NMR

erre ene a

0 1
  C      840.515    -706.386    -429.518
  O      841.756    -706.341    -428.790
  P      841.983    -705.068    -427.845
  C      841.289    -706.305    -425.663
  O      841.019    -705.216    -426.550
  C      840.184    -706.390    -424.562
  O      840.249    -705.178    -423.734
  C      838.740    -706.508    -425.084
  O      838.016    -707.378    -424.202
  C      838.196    -705.097    -424.889
  O      836.778    -705.111    -424.827
  C      838.895    -704.682    -423.613
  N      837.512    -700.982    -420.455
  C      837.489    -702.349    -420.273
  N      836.980    -702.775    -419.106
  N      837.901    -703.214    -421.184
  C      838.414    -702.604    -422.277
  C      838.552    -701.270    -422.591
  C      838.020    -700.340    -421.572
  O      837.982    -699.094    -421.701
  N      839.101    -701.064    -423.812
  C      839.317    -702.276    -424.282
  N      838.926    -703.262    -423.376
  O      841.334    -703.849    -428.641
  O      843.436    -704.789    -427.516
  H      836.515    -705.456    -423.954
  H      841.997    -703.153    -428.810
  H      837.170    -700.347    -419.754
  H      839.747    -702.521    -425.243
  H      838.467    -705.151    -422.736
  H      838.472    -704.490    -425.761
  H      836.690    -702.163    -418.339
  H      838.665    -706.873    -426.099
  H      836.973    -703.804    -418.938
  H      840.433    -707.230    -423.897
  H      842.257    -706.179    -425.192
  H      841.279    -707.212    -426.240
  P      837.963    -708.932    -424.587
  C      838.882    -709.718    -422.289
  O      839.070    -709.665    -423.683
  O      838.621    -708.952    -426.066
  O      836.631    -709.561    -424.562
  H      838.286    -709.742    -426.579
  H      837.911    -709.385    -421.980
  H      839.614    -709.039    -421.804
  H      839.057    -710.737    -421.947
  H      840.481    -707.277    -430.109
  H      840.445    -705.531    -430.157
  H      839.697    -706.384    -428.829

 3  4  5  6  7  8  9  10  11  12  23  26  30  31  33  0
 6-311+G(2d,p)
 ****
 35  36  37  38 0
 6-311+G(2d,p)
 ****
 1  2  13  14  15  16  17  18  19  20  21  22  24  25  27  28  29 0
 3-21G
 ****
 32  34  39  40  41  42  43  44  45  46  47  48  49 0
 3-21G
 ****


