%nproc=1
%NoSave
%Mem=1900MB
#P OB98/GEN NMR

erre ene a

0 1
  C       26.560     -13.255    -117.619
  O       25.445     -12.382    -117.586
  P       24.791     -12.070    -116.151
  C       22.806     -13.701    -116.540
  O       23.941     -13.371    -115.749
  C       21.607     -14.071    -115.666
  O       21.947     -15.234    -114.872
  C       21.161     -12.960    -114.713
  O       19.736     -13.001    -114.629
  C       21.745     -13.383    -113.378
  O       21.021     -12.824    -112.284
  C       21.672     -14.915    -113.490
  N       22.611     -15.578    -112.593
  C       22.086     -16.102    -111.408
  O       20.900     -15.925    -111.126
  N       22.926     -16.769    -110.550
  C       24.198     -16.812    -110.801
  N       24.988     -17.485    -109.922
  C       24.809     -16.162    -111.977
  C       23.964     -15.590    -112.832
  O       23.665     -10.988    -116.499
  O       25.753     -11.577    -115.122
  H       20.072     -13.053    -112.399
  H       23.542     -10.363    -115.758
  H       25.880     -16.196    -112.120
  H       24.320     -15.110    -113.735
  H       20.660     -15.271    -113.262
  H       22.789     -13.053    -113.307
  H       21.483     -11.967    -115.038
  H       20.780     -14.360    -116.326
  H       24.547     -17.908    -109.115
  H       23.050     -14.562    -117.168
  H       25.990     -17.570    -110.035
  H       22.563     -12.858    -117.195
  P       18.927     -11.675    -115.030
  C       18.992     -10.900    -112.583
  O       19.333     -10.590    -113.921
  O       17.438     -12.059    -114.573
  O       18.957     -11.231    -116.454
  H       16.823     -11.347    -114.825
  H       19.443     -10.153    -111.926
  H       19.372     -11.887    -112.308
  H       17.905     -10.868    -112.459
  H       26.891     -13.373    -118.630
  H       26.279     -14.208    -117.223
  H       27.353     -12.844    -117.030

 3  4  5  6  7  8  9  10  11  12  13  21  23  27  28  29  30  32 0
 6-311+G(2d,p)
 ****
 34  35 0
 6-311+G(2d,p)
 ****
 1  2  14  15  16  17  18  19  20  22  24  25  26 0
 3-21G
 ****
 31  33  36  37  38  39  40  41  42  43  44  45  46 0
 3-21G
 ****


