%nproc=1
%NoSave
%Mem=1900MB
#P OB98/GEN NMR

erre ene a

0 1
  C      233.764     -96.526      -2.113
  O      234.921     -95.703      -2.325
  P      234.874     -94.295      -3.092
  C      236.424     -92.222      -3.054
  O      236.339     -93.642      -3.025
  C      237.872     -91.758      -2.869
  O      238.351     -92.125      -1.553
  C      238.882     -92.385      -3.819
  O      238.780     -91.868      -5.134
  C      240.197     -92.058      -3.115
  O      240.653     -90.740      -3.444
  C      239.797     -92.120      -1.628
  N      240.360     -93.266      -0.933
  C      241.418     -93.010      -0.057
  O      241.885     -91.876       0.041
  N      241.929     -94.053       0.676
  C      241.497     -95.259       0.470
  N      242.028     -96.249       1.237
  C      240.477     -95.589      -0.544
  C      239.955     -94.554      -1.200
  O      233.789     -93.383      -2.620
  O      234.687     -94.660      -4.639
  H      234.247     -93.922      -5.098
  H      241.448     -90.572      -2.898
  H      240.175     -96.612      -0.711
  H      239.188     -94.707      -1.954
  H      240.108     -91.201      -1.115
  H      240.995     -92.756      -3.389
  H      238.738     -93.473      -3.834
  H      237.893     -90.664      -2.954
  H      242.718     -95.986       1.929
  H      235.817     -91.821      -2.233
  H      241.746     -97.216       1.173
  H      236.014     -91.855      -4.001
  P      238.000     -92.765      -6.208
  C      237.220     -92.344      -8.649
  O      238.177     -92.074      -7.642
  O      236.456     -92.521      -5.855
  O      238.341     -94.219      -6.167
  H      235.959     -93.355      -5.954
  H      237.180     -91.493      -9.331
  H      236.226     -92.509      -8.228
  H      237.531     -93.231      -9.209
  H      234.048     -97.410      -1.581
  H      233.342     -96.799      -3.058
  H      233.040     -95.983      -1.542

 3  4  5  6  7  8  9  10  11  12  13  24  27  28  29  30  32 0
 6-311+G(2d,p)
 ****
 34  35 0
 6-311+G(2d,p)
 ****
 1  2  14  15  16  17  18  19  20  21  22  23  25  26 0
 3-21G
 ****
 31  33  36  37  38  39  40  41  42  43  44  45  46 0
 3-21G
 ****


