%nproc=1
%NoSave
%Mem=1900MB
#P OB98/GEN NMR

erre ene a

0 1
  C     -243.431      75.804      92.030
  O     -243.470      74.412      91.783
  H     -243.927      76.010      92.982
  H     -243.957      76.341      91.236
  H     -242.396      76.153      92.088
  P     -242.695      73.878      90.486
  C     -240.336      74.166      91.557
  O     -241.299      73.277      91.010
  C     -239.073      73.389      91.943
  O     -239.378      72.562      93.102
  C     -238.569      72.461      90.832
  O     -237.137      72.447      90.847
  C     -239.101      71.096      91.250
  O     -238.366      70.008      90.711
  C     -239.004      71.204      92.776
  N     -239.877      70.253      93.462
  C     -239.277      69.149      94.062
  O     -238.060      68.958      94.121
  N     -240.134      68.233      94.617
  C     -241.505      68.300      94.608
  O     -242.217      67.436      95.101
  C     -242.076      69.486      93.948
  C     -241.251      70.389      93.415
  O     -242.253      75.226      89.740
  O     -243.467      72.959      89.600
  H     -242.939      75.507      89.105
  H     -237.413      70.177      90.870
  H     -239.717      67.431      95.057
  H     -243.156      69.566      93.915
  H     -241.648      71.266      92.914
  H     -237.967      71.060      93.105
  H     -240.145      70.990      90.934
  H     -238.925      72.747      89.843
  H     -238.293      74.101      92.247
  H     -240.754      74.643      92.450
  H     -240.093      74.938      90.820
  P     -236.381      72.948      89.522
  C     -235.955      75.391      90.351
  O     -235.404      74.136      89.996
  O     -237.561      73.688      88.742
  O     -235.722      71.838      88.768
  H     -238.175      74.165      89.332
  H     -235.169      76.057      90.639
  H     -236.633      75.264      91.169
  H     -236.480      75.800      89.513

 6  7  8  9  10  11  12  13  14  15  16  27  31  32  33  34  35 0
 6-311+G(2d,p)
 ****
 36  37 0
 6-311+G(2d,p)
 ****
 1  2  3  4  5  17  18  19  20  21  22  23  24  25 0
 3-21G
 ****
 26  28  29  30  38  39  40  41  42  43  44  45 0
 3-21G
 ****


