%nproc=1
%NoSave
%Mem=1900MB
#P OB98/GEN NMR

erre ene a

0 1
  C     -899.010    1868.043     936.773
  O     -898.040    1867.069     937.133
  H     -898.780    1868.968     937.307
  H     -900.000    1867.713     937.046
  H     -898.970    1868.243     935.692
  P     -898.270    1865.589     936.526
  C     -897.090    1864.700     938.670
  O     -897.130    1864.711     937.263
  C     -895.650    1864.385     939.159
  O     -895.260    1863.069     938.719
  C     -894.610    1865.332     938.591
  O     -894.560    1866.589     939.267
  C     -893.340    1864.520     938.871
  O     -893.040    1864.556     940.305
  C     -893.830    1863.114     938.455
  N     -893.560    1862.806     937.026
  C     -892.230    1862.414     936.715
  O     -891.370    1862.325     937.601
  N     -891.910    1862.150     935.415
  C     -892.840    1862.260     934.512
  N     -892.460    1861.990     933.231
  C     -894.230    1862.646     934.764
  C     -894.520    1862.901     936.052
  O     -897.720    1865.712     935.031
  O     -899.660    1865.051     936.643
  H     -892.850    1865.483     940.500
  H     -897.680    1864.812     934.615
  H     -894.950    1862.743     933.993
  H     -895.510    1863.219     936.338
  H     -893.360    1862.342     939.080
  H     -892.450    1864.867     938.343
  H     -894.680    1865.456     937.519
  H     -895.670    1864.377     940.245
  H     -891.490    1861.773     933.052
  H     -897.770    1863.941     939.052
  H     -893.050    1862.169     932.405
  H     -897.390    1865.678     939.061
  P     -895.000    1867.876     938.426
  C     -892.710    1868.462     937.339
  O     -893.690    1868.815     938.281
  O     -895.920    1868.683     939.470
  O     -895.720    1867.608     937.131
  H     -896.650    1869.155     939.001
  H     -891.915    1869.178     937.366
  H     -893.144    1868.448     936.361
  H     -892.324    1867.492     937.572

 6  7  8  9  10  11  12  13  14  15  16  26  30  31  32  33  35 0
 6-311+G(2d,p)
 ****
 37  38 0
 6-311+G(2d,p)
 ****
 1  2  3  4  5  17  18  19  20  21  22  23  24  25 0
 3-21G
 ****
 27  28  29  34  36  39  40  41  42  43  44  45  46 0
 3-21G
 ****


