%nproc=1
%NoSave
%Mem=1900MB
#P OB98/GEN NMR

erre ene a

0 1
  C      238.054     297.756     187.232
  O      237.982     296.748     188.220
  P      237.779     297.117     189.764
  C      235.222     296.922     189.865
  O      236.336     297.801     189.923
  C      233.961     297.577     190.430
  O      232.825     296.704     190.209
  C      234.034     297.889     191.932
  O      233.367     299.140     192.136
  C      233.243     296.754     192.553
  O      232.756     297.080     193.848
  C      232.170     296.534     191.483
  N      231.541     295.228     191.585
  C      230.834     294.956     192.758
  O      230.870     295.748     193.703
  N      230.117     293.789     192.837
  C      230.254     292.889     191.907
  N      229.474     291.777     191.991
  C      231.190     293.043     190.778
  C      231.759     294.236     190.652
  O      238.899     297.877     190.389
  O      237.581     295.698     190.484
  H      238.215     295.625     191.226
  H      232.590     296.248     194.341
  H      231.363     292.219     190.100
  H      232.443     294.460     189.839
  H      231.392     297.306     191.552
  H      233.883     295.869     192.643
  H      235.062     297.960     192.301
  H      233.777     298.502     189.862
  H      228.818     291.726     192.756
  H      235.458     296.038     190.459
  H      229.279     291.195     191.178
  H      235.059     296.594     188.831
  P      234.124     300.275     192.984
  C      235.599     300.987     190.971
  O      235.552     300.526     192.306
  O      234.529     299.466     194.316
  O      233.326     301.480     193.350
  H      234.627     300.099     195.050
  H      236.638     301.036     190.650
  H      235.164     301.988     190.898
  H      235.062     300.302     190.307
  H      238.191     297.305     186.271
  H      238.879     298.403     187.443
  H      237.146     298.323     187.234

 3  4  5  6  7  8  9  10  11  12  13  24  27  28  29  30  32 0
 6-311+G(2d,p)
 ****
 34  35 0
 6-311+G(2d,p)
 ****
 1  2  14  15  16  17  18  19  20  21  22  23  25  26 0
 3-21G
 ****
 31  33  36  37  38  39  40  41  42  43  44  45  46 0
 3-21G
 ****


