%nproc=1
%NoSave
%Mem=1900MB
#P OB98/GEN NMR

erre ene a

0 1
  C     -186.477    -108.317    -266.992
  O     -186.992    -107.098    -266.505
  H     -185.940    -108.815    -266.178
  H     -185.773    -108.137    -267.808
  H     -187.287    -108.972    -267.329
  P     -187.796    -106.133    -267.506
  C     -185.747    -104.604    -267.761
  O     -186.668    -105.451    -268.436
  C     -184.633    -104.141    -268.703
  O     -185.193    -103.281    -269.732
  C     -183.513    -103.357    -267.999
  O     -182.240    -103.850    -268.424
  C     -183.705    -101.934    -268.505
  O     -182.513    -101.157    -268.444
  C     -184.261    -102.199    -269.910
  N     -184.883    -101.013    -270.483
  C     -184.014    -100.084    -271.067
  O     -182.799    -100.290    -271.082
  N     -184.536     -98.918    -271.568
  C     -185.806     -98.681    -271.454
  N     -186.253     -97.492    -271.949
  C     -186.754     -99.619    -270.821
  C     -186.230    -100.757    -270.362
  O     -188.725    -105.174    -266.835
  O     -188.540    -107.119    -268.522
  H     -181.772    -101.696    -268.807
  H     -189.307    -106.647    -268.923
  H     -187.802     -99.369    -270.748
  H     -186.847    -101.511    -269.883
  H     -183.465    -102.540    -270.587
  H     -184.464    -101.434    -267.891
  H     -183.570    -103.406    -266.914
  H     -184.234    -105.021    -269.228
  H     -185.567     -96.872    -272.371
  H     -185.326    -105.153    -266.911
  H     -187.214     -97.188    -271.895
  H     -186.289    -103.727    -267.392
  P     -181.676    -105.129    -267.632
  C     -180.261    -103.847    -265.871
  O     -181.381    -104.683    -266.121
  O     -180.218    -105.339    -268.265
  O     -182.523    -106.346    -267.789
  H     -180.209    -106.151    -268.809
  H     -180.198    -103.639    -264.823
  H     -180.373    -102.930    -266.411
  H     -179.368    -104.342    -266.190

 6  7  8  9  10  11  12  13  14  15  16  26  30  31  32  33  35 0
 6-311+G(2d,p)
 ****
 37  38 0
 6-311+G(2d,p)
 ****
 1  2  3  4  5  17  18  19  20  21  22  23  24  25 0
 3-21G
 ****
 27  28  29  34  36  39  40  41  42  43  44  45  46 0
 3-21G
 ****


