%nproc=1
%NoSave
%Mem=1900MB
#P OB98/GEN NMR

erre ene a

0 1
  C        9.119      11.800     483.306
  O        8.179      12.885     483.278
  P        7.772      13.667     481.936
  C        9.603      15.453     482.364
  O        8.227      15.199     482.095
  C       10.084      16.695     481.611
  O        9.972      16.496     480.183
  C        9.282      17.965     481.873
  O        9.543      18.515     483.152
  C        9.732      18.846     480.708
  O       10.965      19.522     481.005
  C        9.956      17.812     479.586
  N        8.961      17.895     478.526
  C        9.085      18.959     477.631
  O        9.952      19.815     477.797
  N        8.209      19.027     476.573
  C        7.233      18.180     476.485
  N        6.411      18.290     475.405
  C        6.986      17.130     477.491
  C        7.883      17.041     478.471
  O        6.340      13.501     481.549
  O        8.748      13.097     480.801
  H        8.320      13.188     479.928
  H       11.651      18.832     481.089
  H        6.135      16.466     477.399
  H        7.783      16.285     479.243
  H       10.955      17.940     479.147
  H        8.992      19.612     480.465
  H        8.213      17.745     481.772
  H       11.144      16.854     481.862
  H        6.618      19.017     474.733
  H       10.184      14.586     482.027
  H        5.640      17.665     475.230
  H        9.743      15.567     483.443
  P        8.313      18.578     484.180
  C        7.246      20.696     483.129
  O        7.831      20.106     484.270
  O        8.999      18.310     485.603
  O        7.225      17.588     483.904
  H        8.415      17.749     486.148
  H        6.564      21.487     483.457
  H        6.689      19.969     482.534
  H        8.032      21.144     482.516
  H        9.224      11.444     484.310
  H       10.068      12.141     482.948
  H        8.766      11.006     482.681

 3  4  5  6  7  8  9  10  11  12  13  24  27  28  29  30  32 0
 6-311+G(2d,p)
 ****
 34  35 0
 6-311+G(2d,p)
 ****
 1  2  14  15  16  17  18  19  20  21  22  23  25  26 0
 3-21G
 ****
 31  33  36  37  38  39  40  41  42  43  44  45  46 0
 3-21G
 ****


