%nproc=1
%NoSave
%Mem=1900MB
#P OB98/GEN NMR

erre ene a

0 1
  C      -18.964      88.340    -176.583
  O      -18.754      87.826    -177.891
  P      -17.887      88.698    -178.920
  C      -18.396      90.457    -180.756
  O      -18.912      89.655    -179.704
  C      -19.482      91.351    -181.352
  O      -19.947      92.275    -180.332
  C      -19.027      92.191    -182.551
  O      -20.154      92.330    -183.425
  C      -18.715      93.539    -181.926
  O      -18.732      94.594    -182.883
  C      -19.813      93.609    -180.869
  N      -19.398      98.551    -179.625
  C      -19.770      97.941    -180.771
  N      -19.857      96.619    -181.025
  C      -19.507      95.904    -179.942
  C      -19.074      96.386    -178.719
  C      -19.027      97.783    -178.574
  N      -18.659      98.407    -177.405
  N      -18.778      95.344    -177.864
  C      -19.028      94.253    -178.559
  N      -19.494      94.543    -179.810
  O      -17.462      87.620    -180.023
  O      -16.696      89.375    -178.333
  H      -18.502      95.425    -182.426
  H      -16.500      87.456    -179.975
  H      -20.041      98.602    -181.590
  H      -18.889      93.241    -178.206
  H      -20.781      93.900    -181.296
  H      -17.721      93.513    -181.467
  H      -18.174      91.771    -183.094
  H      -20.335      90.720    -181.628
  H      -18.013      89.800    -181.542
  H      -18.783      99.404    -177.336
  H      -18.565      97.849    -176.563
  H      -17.568      91.066    -180.379
  P      -19.843      92.541    -184.983
  C      -18.950      94.495    -186.435
  O      -19.367      94.059    -185.156
  O      -21.297      92.519    -185.655
  O      -18.947      91.502    -185.573
  H      -21.233      92.206    -186.576
  H      -19.221      95.548    -186.556
  H      -19.419      93.916    -187.237
  H      -17.863      94.397    -186.512
  H      -19.556      87.650    -176.019
  H      -19.474      89.278    -176.646
  H      -18.020      88.479    -176.099

 3  4  5  6  7  8  9  10  11  12  22  25  29  30  31  32 0
 6-311+G(2d,p)
 ****
 33  36  37 0
 6-311+G(2d,p)
 ****
 1  2  13  14  15  16  17  18  19  20  21  23  24  26 0
 3-21G
 ****
 27  28  34  35  38  39  40  41  42  43  44  45  46  47  48 0
 3-21G
 ****


