%nproc=1
%NoSave
%Mem=1900MB
#P OB98/GEN NMR

erre ene a

0 1
  C      284.308      62.046     471.482
  O      283.009      62.456     471.088
  P      282.235      61.695     469.905
  C      282.553      62.207     467.402
  O      283.181      61.785     468.607
  C      283.349      61.736     466.187
  O      283.533      60.302     466.273
  C      282.658      62.025     464.854
  O      283.649      62.351     463.877
  C      282.020      60.707     464.466
  O      281.848      60.608     463.040
  C      283.007      59.701     465.076
  N      282.102      54.867     463.574
  C      282.803      55.872     463.003
  N      282.983      57.139     463.441
  C      282.384      57.307     464.632
  C      281.639      56.380     465.348
  C      281.503      55.104     464.768
  N      280.796      54.078     465.361
  N      281.161      56.930     466.518
  C      281.623      58.161     466.524
  N      282.381      58.431     465.412
  O      280.828      62.135     469.680
  O      282.317      60.146     470.304
  H      281.494      59.715     462.851
  H      281.483      59.691     470.074
  H      283.290      55.622     462.056
  H      281.437      58.897     467.297
  H      283.848      59.504     464.396
  H      281.025      60.621     464.930
  H      281.925      62.834     464.927
  H      284.343      62.199     466.216
  H      282.509      63.304     467.401
  H      280.854      53.167     464.930
  H      280.497      54.198     466.320
  H      281.529      61.815     467.370
  P      283.095      62.771     462.421
  C      282.604      61.364     460.281
  O      282.800      61.381     461.681
  O      284.001      63.734     461.733
  O      281.650      63.365     462.800
  H      281.319      62.988     463.646
  H      282.383      60.341     459.968
  H      283.517      61.687     459.767
  H      281.770      62.013     460.002
  H      284.653      62.671     472.279
  H      284.976      62.128     470.650
  H      284.276      61.029     471.814

 3  4  5  6  7  8  9  10  11  12  22  25  29  30  31  32 0
 6-311+G(2d,p)
 ****
 33  36  37 0
 6-311+G(2d,p)
 ****
 1  2  13  14  15  16  17  18  19  20  21  23  24  26 0
 3-21G
 ****
 27  28  34  35  38  39  40  41  42  43  44  45  46  47  48 0
 3-21G
 ****


