%nproc=1
%NoSave
%Mem=1900MB
#P OB98/GEN NMR

erre ene a

0 1
  C     -440.245     225.672    -492.606
  O     -439.504     226.636    -491.867
  P     -439.463     226.511    -490.270
  C     -440.763     228.635    -489.365
  O     -440.728     227.251    -489.635
  C     -441.845     228.923    -488.308
  O     -443.154     228.693    -488.872
  C     -441.724     228.042    -487.072
  O     -440.835     228.587    -486.114
  C     -443.162     227.975    -486.594
  O     -443.517     229.190    -485.907
  C     -443.923     227.875    -487.942
  N     -444.111     226.529    -488.535
  C     -445.022     225.642    -487.972
  O     -445.702     225.892    -486.976
  N     -445.143     224.429    -488.593
  C     -444.597     224.080    -489.797
  O     -444.789     222.995    -490.336
  C     -443.762     225.106    -490.425
  C     -443.549     226.259    -489.778
  O     -438.227     227.434    -489.849
  O     -439.313     225.108    -489.770
  H     -444.362     229.025    -485.449
  H     -437.520     226.894    -489.444
  H     -445.743     223.748    -488.160
  H     -443.342     224.889    -491.399
  H     -442.930     227.024    -490.234
  H     -444.921     228.320    -487.855
  H     -443.304     227.170    -485.879
  H     -441.419     227.026    -487.355
  H     -441.773     229.980    -488.025
  H     -440.970     229.203    -490.278
  H     -439.784     228.965    -489.002
  P     -439.423     227.879    -485.845
  C     -439.877     227.770    -483.323
  O     -439.613     227.031    -484.497
  O     -438.227     228.775    -485.882
  O     -439.352     226.738    -486.968
  H     -438.842     227.053    -487.756
  H     -440.138     227.072    -482.524
  H     -440.709     228.461    -483.483
  H     -438.987     228.331    -483.031
  H     -440.174     225.892    -493.651
  H     -441.271     225.703    -492.304
  H     -439.847     224.696    -492.419

 3  4  5  6  7  8  9  10  11  12  13  23  28  29  30  31  32 0
 6-311+G(2d,p)
 ****
 33  34 0
 6-311+G(2d,p)
 ****
 1  2  14  15  16  17  18  19  20  21  22  24  25  26  27 0
 3-21G
 ****
 35  36  37  38  39  40  41  42  43  44  45 0
 3-21G
 ****


