%nproc=1
%NoSave
%Mem=1900MB
#P OB98/GEN NMR

erre ene a

0 1
  C     -176.356     545.860    -161.027
  O     -177.683     546.379    -160.873
  P     -178.271     547.336    -162.016
  C     -180.773     547.787    -162.525
  O     -179.729     547.842    -161.560
  C     -182.143     547.959    -161.866
  O     -182.499     546.734    -161.164
  C     -182.222     549.080    -160.813
  O     -182.550     550.405    -161.240
  C     -183.370     548.600    -159.954
  O     -184.627     549.000    -160.545
  C     -183.256     547.073    -159.991
  N     -184.011     545.296    -155.241
  C     -184.870     545.761    -156.176
  N     -184.581     546.220    -157.424
  C     -183.259     546.150    -157.666
  C     -182.268     545.691    -156.805
  C     -182.690     545.244    -155.539
  N     -181.811     544.781    -154.581
  N     -181.029     545.775    -157.409
  C     -181.268     546.289    -158.601
  N     -182.605     546.514    -158.808
  O     -178.186     546.809    -163.405
  O     -177.390     548.655    -161.857
  H     -184.716     548.513    -161.385
  H     -177.213     549.039    -162.736
  H     -185.917     545.784    -155.890
  H     -180.506     546.515    -159.343
  H     -184.236     546.580    -160.071
  H     -183.362     549.035    -158.944
  H     -181.299     549.106    -160.209
  H     -182.903     548.148    -162.648
  H     -180.727     546.827    -163.056
  H     -182.190     544.528    -153.671
  H     -180.820     544.787    -154.758
  H     -180.546     548.551    -163.285
  P     -181.563     551.643    -160.965
  C     -181.643     553.921    -162.231
  O     -182.350     552.936    -161.499
  O     -180.178     551.484    -161.483
  O     -181.654     551.808    -159.359
  H     -182.511     552.108    -159.046
  H     -182.378     554.610    -162.685
  H     -181.037     553.486    -163.018
  H     -181.016     554.523    -161.546
  H     -176.114     545.244    -160.186
  H     -175.661     546.671    -161.087
  H     -176.303     545.278    -161.923

 3  4  5  6  7  8  9  10  11  12  22  25  29  30  31  32 0
 6-311+G(2d,p)
 ****
 33  36  37 0
 6-311+G(2d,p)
 ****
 1  2  13  14  15  16  17  18  19  20  21  23  24  26 0
 3-21G
 ****
 27  28  34  35  38  39  40  41  42  43  44  45  46  47  48 0
 3-21G
 ****


