%nproc=1
%NoSave
%Mem=1900MB
#P OB98/GEN NMR

erre ene a

0 1
  C     -585.080     269.817    -583.017
  O     -585.124     268.693    -582.169
  H     -584.582     270.640    -582.495
  H     -586.098     270.136    -583.272
  H     -584.523     269.594    -583.931
  P     -585.675     267.318    -582.789
  C     -584.082     266.184    -581.074
  O     -585.353     266.166    -581.712
  C     -584.219     265.785    -579.602
  O     -585.104     266.735    -578.940
  C     -584.796     264.380    -579.403
  O     -584.135     263.767    -578.289
  C     -586.251     264.636    -579.040
  O     -586.824     263.574    -578.276
  C     -586.150     265.980    -578.297
  N     -587.425     266.697    -578.320
  C     -588.461     266.173    -577.543
  O     -588.274     265.147    -576.879
  N     -589.686     266.780    -577.560
  C     -589.894     267.781    -578.371
  N     -591.142     268.322    -578.372
  C     -588.853     268.329    -579.261
  C     -587.649     267.749    -579.184
  O     -584.648     267.007    -583.977
  O     -587.088     267.347    -583.257
  H     -587.790     263.707    -578.240
  H     -585.082     266.535    -584.711
  H     -589.080     269.139    -579.935
  H     -586.826     268.073    -579.810
  H     -585.861     265.824    -577.249
  H     -586.839     264.753    -579.958
  H     -584.702     263.741    -580.283
  H     -583.236     265.878    -579.121
  H     -591.830     267.911    -577.756
  H     -583.673     267.203    -581.126
  H     -591.429     269.065    -578.987
  H     -583.402     265.503    -581.594
  P     -583.837     262.189    -578.409
  C     -581.400     261.588    -577.750
  O     -582.735     261.805    -577.317
  O     -583.054     262.068    -579.803
  O     -585.074     261.351    -578.390
  H     -583.629     261.643    -580.477
  H     -580.788     261.341    -576.908
  H     -581.027     262.477    -578.214
  H     -581.380     260.782    -578.454

 6  7  8  9  10  11  12  13  14  15  16  26  30  31  32  33  35 0
 6-311+G(2d,p)
 ****
 37  38 0
 6-311+G(2d,p)
 ****
 1  2  3  4  5  17  18  19  20  21  22  23  24  25 0
 3-21G
 ****
 27  28  29  34  36  39  40  41  42  43  44  45  46 0
 3-21G
 ****


