%nproc=1
%NoSave
%Mem=1900MB
#P OB98/GEN NMR

erre ene a

0 1
  C       38.656     476.098     -52.593
  O       39.784     476.171     -51.745
  H       37.812     476.630     -52.146
  H       38.902     476.570     -53.549
  H       38.386     475.052     -52.773
  P       39.620     475.562     -50.269
  C       40.762     477.677     -49.271
  O       40.772     476.260     -49.395
  C       42.067     478.137     -48.627
  O       42.133     477.676     -47.257
  C       43.314     477.585     -49.309
  O       43.684     478.330     -50.459
  C       44.339     477.741     -48.198
  O       44.744     479.116     -48.102
  C       43.518     477.336     -46.962
  N       46.565     473.595     -45.249
  C       46.762     474.926     -45.398
  N       45.894     475.857     -45.840
  C       44.709     475.299     -46.140
  C       44.357     473.963     -46.029
  C       45.354     473.084     -45.567
  N       45.164     471.722     -45.447
  N       43.056     473.768     -46.449
  C       42.630     474.969     -46.785
  N       43.601     475.923     -46.644
  O       40.142     474.057     -50.417
  O       38.253     475.651     -49.675
  H       45.188     479.343     -48.943
  H       39.882     473.527     -49.641
  H       47.752     475.283     -45.127
  H       41.632     475.199     -47.143
  H       43.811     477.892     -46.061
  H       45.243     477.151     -48.369
  H       43.207     476.517     -49.546
  H       42.080     479.231     -48.611
  H       39.919     477.978     -48.641
  H       45.981     471.164     -45.248
  H       44.321     471.316     -45.815
  H       40.653     478.130     -50.261
  P       43.891     477.520     -51.832
  C       46.261     476.867     -51.001
  O       45.475     477.405     -52.056
  O       43.437     478.586     -52.939
  O       43.122     476.245     -51.923
  H       43.041     478.137     -53.710
  H       47.290     476.853     -51.294
  H       45.937     475.870     -50.788
  H       46.147     477.473     -50.127

 6  7  8  9  10  11  12  13  14  15  25  28  32  33  34  35 0
 6-311+G(2d,p)
 ****
 36  39  40 0
 6-311+G(2d,p)
 ****
 1  2  3  4  5  16  17  18  19  20  21  22  23  24 0
 3-21G
 ****
 26  27  29  30  31  37  38  41  42  43  44  45  46  47 0
 3-21G
 ****
 48 0
 3-21G
 ****


