%nproc=1
%NoSave
%Mem=1900MB
#P OB98/GEN NMR

erre ene a

0 1
  C      222.917    -114.299    -484.643
  O      222.703    -113.443    -485.744
  H      223.087    -113.714    -483.735
  H      222.026    -114.919    -484.499
  H      223.775    -114.952    -484.830
  P      223.901    -112.449    -486.133
  C      222.277    -110.484    -485.631
  O      223.561    -111.055    -485.415
  C      221.668    -110.076    -484.293
  O      221.613    -111.213    -483.404
  C      222.457    -109.005    -483.544
  O      222.182    -107.703    -484.029
  C      221.922    -109.197    -482.137
  O      220.616    -108.602    -482.029
  C      221.820    -110.727    -482.048
  N      224.392    -111.736    -477.741
  C      223.242    -111.063    -477.970
  N      222.628    -110.838    -479.148
  C      223.321    -111.382    -480.160
  C      224.507    -112.088    -480.080
  C      225.050    -112.267    -478.796
  N      226.229    -112.940    -478.563
  N      224.934    -112.468    -481.340
  C      223.999    -112.024    -482.157
  N      223.006    -111.350    -481.491
  O      223.643    -112.134    -487.683
  O      225.281    -112.965    -485.878
  H      220.348    -108.683    -481.096
  H      224.463    -111.816    -488.102
  H      222.757    -110.654    -477.088
  H      223.995    -112.162    -483.229
  H      220.965    -111.056    -481.445
  H      222.550    -108.734    -481.374
  H      223.535    -109.218    -483.554
  H      220.636    -109.745    -484.477
  H      221.631    -111.224    -486.111
  H      226.620    -112.851    -477.636
  H      226.797    -113.205    -479.356
  H      222.376    -109.614    -486.287
  P      223.335    -106.967    -484.871
  C      223.281    -105.086    -483.073
  O      224.074    -105.991    -483.840
  O      222.518    -105.969    -485.812
  O      224.220    -107.886    -485.645
  H      223.016    -105.774    -486.628
  H      223.916    -104.507    -482.436
  H      222.586    -105.639    -482.476
  H      222.746    -104.434    -483.732

 6  7  8  9  10  11  12  13  14  15  25  28  32  33  34  35 0
 6-311+G(2d,p)
 ****
 36  39  40 0
 6-311+G(2d,p)
 ****
 1  2  3  4  5  16  17  18  19  20  21  22  23  24 0
 3-21G
 ****
 26  27  29  30  31  37  38  41  42  43  44  45  46  47 0
 3-21G
 ****
 48 0
 3-21G
 ****


