%nproc=1
%NoSave
%Mem=1900MB
#P OB98/GEN NMR

erre ene a

0 1
  C      -34.914       5.138      16.375
  O      -35.564       5.641      17.524
  P      -36.531       6.912      17.439
  C      -38.535       7.545      15.974
  O      -37.286       6.869      16.027
  C      -38.725       8.259      14.637
  O      -37.906       9.457      14.610
  C      -38.356       7.409      13.414
  O      -39.301       7.716      12.383
  C      -36.978       7.924      13.043
  O      -36.647       7.657      11.688
  C      -37.121       9.407      13.402
  N      -35.835      10.064      13.576
  C      -35.412      10.906      12.546
  O      -36.049      10.965      11.493
  N      -34.270      11.644      12.732
  C      -33.523      11.415      13.767
  N      -32.437      12.215      13.948
  C      -33.816      10.352      14.748
  C      -34.996       9.751      14.619
  O      -35.885       8.220      17.756
  O      -37.702       6.586      18.483
  H      -37.792       7.334      19.105
  H      -35.733       7.968      11.518
  H      -33.102      10.114      15.522
  H      -35.316       8.977      15.306
  H      -37.688       9.937      12.627
  H      -36.224       7.446      13.678
  H      -38.381       6.336      13.620
  H      -39.771       8.581      14.568
  H      -32.291      12.959      13.277
  H      -38.556       8.283      16.778
  H      -31.993      12.326      14.858
  H      -39.350       6.835      16.151
  P      -39.849       6.514      11.469
  C      -41.221       4.352      11.887
  O      -40.433       5.383      12.442
  O      -38.478       5.844      10.964
  O      -40.687       6.897      10.294
  H      -38.643       5.381      10.123
  H      -41.585       3.717      12.697
  H      -40.622       3.740      11.207
  H      -42.079       4.767      11.353
  H      -34.318       4.291      16.644
  H      -34.286       5.898      15.959
  H      -35.645       4.844      15.652

 3  4  5  6  7  8  9  10  11  12  13  24  27  28  29  30  32 0
 6-311+G(2d,p)
 ****
 34  35 0
 6-311+G(2d,p)
 ****
 1  2  14  15  16  17  18  19  20  21  22  23  25  26 0
 3-21G
 ****
 31  33  36  37  38  39  40  41  42  43  44  45  46 0
 3-21G
 ****


