%nproc=1
%NoSave
%Mem=1900MB
#P OB98/GEN NMR

erre ene a

0 1
  C     -493.696    -568.896     -62.216
  O     -494.075    -568.276     -63.426
  H     -493.787    -568.170     -61.405
  H     -492.653    -569.218     -62.280
  H     -494.339    -569.754     -61.996
  P     -494.313    -569.230     -64.691
  C     -495.810    -567.687     -66.137
  O     -494.532    -568.279     -65.968
  C     -495.885    -566.357     -65.388
  O     -494.774    -565.524     -65.803
  C     -497.178    -565.571     -65.645
  O     -497.589    -564.944     -64.431
  C     -496.752    -564.515     -66.649
  O     -497.585    -563.357     -66.612
  C     -495.311    -564.258     -66.224
  N     -495.041    -560.435     -69.497
  C     -495.918    -560.658     -68.452
  N     -496.873    -559.722     -68.254
  N     -495.865    -561.704     -67.673
  C     -494.835    -562.536     -67.965
  C     -493.906    -562.430     -68.973
  C     -493.994    -561.282     -69.851
  O     -493.261    -561.042     -70.803
  N     -493.043    -563.499     -68.966
  C     -493.451    -564.244     -67.953
  N     -494.530    -563.701     -67.316
  O     -495.770    -569.836     -64.423
  O     -493.302    -570.311     -64.878
  H     -498.490    -563.634     -66.867
  H     -495.708    -570.801     -64.291
  H     -495.137    -559.620     -70.076
  H     -493.010    -565.183     -67.651
  H     -495.242    -563.557     -65.384
  H     -496.796    -564.929     -67.664
  H     -496.942    -558.870     -68.784
  H     -497.990    -566.195     -66.027
  H     -497.504    -559.842     -67.471
  H     -495.756    -566.552     -64.317
  H     -496.572    -568.367     -65.746
  H     -495.995    -567.522     -67.204
  P     -498.910    -565.519     -63.724
  C     -498.938    -564.618     -61.299
  O     -499.403    -564.454     -62.630
  O     -498.358    -566.736     -62.846
  O     -499.958    -565.975     -64.688
  H     -498.623    -567.586     -63.248
  H     -499.343    -563.843     -60.682
  H     -497.869    -564.563     -61.285
  H     -499.251    -565.571     -60.927

 6  7  8  9  10  11  12  13  14  15  26  29  33  34 0
 6-311+G(2d,p)
 ****
 36  38  39  40  41 0
 6-311+G(2d,p)
 ****
 1  2  3  4  5  16  17  18  19  20  21  22  23  24  25 0
 3-21G
 ****
 27  28  30  31  32  35  37  42  43  44  45  46  47 0
 3-21G
 ****
 48  49 0
 3-21G
 ****


