%nproc=1
%NoSave
%Mem=1900MB
#P OB98/GEN NMR

erre ene a

0 1
  C     -120.914     -99.924     366.971
  O     -119.990     -99.630     365.913
  P     -120.314     -99.994     364.383
  C     -120.898    -102.014     362.908
  O     -120.533    -101.579     364.212
  C     -121.929    -103.153     362.916
  O     -121.354    -104.374     363.453
  C     -123.201    -102.872     363.731
  O     -124.258    -103.582     363.079
  C     -122.873    -103.515     365.068
  O     -124.014    -103.772     365.867
  C     -122.133    -104.767     364.599
  N     -122.025    -107.614     368.863
  C     -123.005    -107.394     367.953
  N     -122.946    -106.657     366.827
  C     -121.712    -106.145     366.646
  C     -120.615    -106.296     367.477
  C     -120.807    -107.063     368.638
  N     -119.829    -107.262     369.592
  N     -119.525    -105.607     366.979
  C     -119.966    -105.037     365.874
  N     -121.282    -105.339     365.626
  O     -119.349     -99.411     363.401
  O     -121.776     -99.390     364.135
  H     -123.711    -104.087     366.739
  H     -121.785     -98.909     363.286
  H     -123.960    -107.862     368.167
  H     -119.389    -104.388     365.232
  H     -122.840    -105.543     364.275
  H     -122.210    -102.844     365.637
  H     -123.435    -101.806     363.815
  H     -122.188    -103.365     361.869
  H     -119.992    -102.352     362.388
  H     -120.087    -107.746     370.433
  H     -118.958    -106.754     369.510
  H     -121.300    -101.159     362.349
  P     -125.246    -102.860     362.051
  C     -127.397    -101.477     362.229
  O     -126.310    -102.046     362.933
  O     -125.854    -103.761     361.020
  O     -124.366    -101.706     361.377
  H     -124.783    -101.418     360.546
  H     -127.067    -100.584     361.695
  H     -128.181    -101.205     362.938
  H     -127.816    -102.195     361.510
  H     -120.502     -99.600     367.904
  H     -121.092    -100.978     367.006
  H     -121.836     -99.412     366.791

 3  4  5  6  7  8  9  10  11  12  22  25  29  30  31  32 0
 6-311+G(2d,p)
 ****
 33  36  37 0
 6-311+G(2d,p)
 ****
 1  2  13  14  15  16  17  18  19  20  21  23  24  26 0
 3-21G
 ****
 27  28  34  35  38  39  40  41  42  43  44  45  46  47  48 0
 3-21G
 ****


