%nproc=1
%NoSave
%Mem=1900MB
#P OB98/GEN NMR

erre ene a

0 1
  C      -74.092    -265.851      82.404
  O      -73.894    -264.490      82.004
  P      -75.052    -263.647      81.275
  C      -74.197    -264.100      78.895
  O      -75.303    -264.204      79.788
  C      -74.460    -264.748      77.528
  O      -73.314    -264.591      76.648
  C      -74.779    -266.251      77.574
  O      -75.665    -266.498      76.480
  C      -73.415    -266.870      77.310
  O      -73.484    -268.224      76.881
  C      -72.866    -265.908      76.263
  N      -68.884    -267.924      73.750
  C      -70.209    -267.926      73.483
  N      -71.201    -267.336      74.179
  C      -70.715    -266.654      75.227
  C      -69.388    -266.555      75.620
  C      -68.444    -267.240      74.832
  N      -67.101    -267.281      75.125
  N      -69.272    -265.795      76.768
  C      -70.514    -265.451      77.067
  N      -71.419    -265.946      76.166
  O      -74.863    -262.164      81.342
  O      -76.391    -264.061      82.054
  H      -73.828    -268.761      77.617
  H      -76.906    -263.256      82.253
  H      -70.512    -268.481      72.596
  H      -70.810    -264.873      77.933
  H      -73.275    -266.122      75.270
  H      -72.823    -266.848      78.236
  H      -75.220    -266.574      78.519
  H      -75.286    -264.201      77.058
  H      -73.327    -264.579      79.362
  H      -66.517    -267.875      74.554
  H      -66.776    -266.885      75.996
  H      -73.957    -263.039      78.758
  P      -77.240    -266.233      76.593
  C      -77.938    -268.476      77.604
  O      -77.762    -267.093      77.839
  O      -78.004    -266.435      75.327
  O      -77.357    -264.720      77.114
  H      -78.251    -264.377      76.927
  H      -78.860    -268.638      77.032
  H      -78.018    -268.994      78.564
  H      -77.091    -268.894      77.049
  H      -73.201    -266.220      82.867
  H      -74.319    -266.446      81.544
  H      -74.904    -265.904      83.099

 3  4  5  6  7  8  9  10  11  12  22  25  29  30  31  32 0
 6-311+G(2d,p)
 ****
 33  36  37 0
 6-311+G(2d,p)
 ****
 1  2  13  14  15  16  17  18  19  20  21  23  24  26 0
 3-21G
 ****
 27  28  34  35  38  39  40  41  42  43  44  45  46  47  48 0
 3-21G
 ****


