%nproc=1
%NoSave
%Mem=1900MB
#P OB98/GEN NMR

erre ene a

0 1
  C       -7.749    -516.500    -116.892
  O       -6.629    -517.206    -116.353
  P       -6.233    -516.894    -114.830
  C       -5.193    -514.930    -113.495
  O       -5.532    -515.443    -114.773
  C       -4.481    -513.573    -113.609
  O       -3.222    -513.712    -114.333
  C       -5.295    -512.506    -114.340
  O       -4.982    -511.240    -113.749
  C       -4.732    -512.544    -115.748
  O       -5.030    -511.346    -116.466
  C       -3.254    -512.784    -115.445
  N        0.839    -512.158    -118.442
  C        0.378    -511.461    -117.372
  N       -0.735    -511.678    -116.639
  C       -1.383    -512.777    -117.088
  C       -1.041    -513.577    -118.164
  C        0.123    -513.231    -118.863
  N        0.581    -513.921    -119.965
  N       -1.980    -514.582    -118.335
  C       -2.869    -514.383    -117.387
  N       -2.534    -513.324    -116.582
  O       -5.019    -517.906    -114.549
  O       -7.348    -517.100    -113.860
  H       -4.748    -511.470    -117.400
  H       -5.316    -518.622    -113.961
  H        0.988    -510.607    -117.067
  H       -3.767    -514.960    -117.237
  H       -2.729    -511.866    -115.141
  H       -5.159    -513.392    -116.298
  H       -6.380    -512.671    -114.319
  H       -4.234    -513.225    -112.595
  H       -4.543    -515.628    -112.966
  H        1.417    -513.588    -120.426
  H        0.035    -514.693    -120.320
  H       -6.103    -514.846    -112.884
  P       -6.128    -510.118    -113.798
  C       -6.485    -507.939    -115.164
  O       -5.739    -509.122    -114.999
  O       -5.863    -509.243    -112.482
  O       -7.519    -510.665    -113.839
  H       -6.684    -508.814    -112.192
  H       -5.798    -507.124    -115.428
  H       -7.027    -507.662    -114.253
  H       -7.197    -508.072    -115.976
  H       -7.904    -516.799    -117.908
  H       -7.559    -515.448    -116.855
  H       -8.623    -516.725    -116.317

 3  4  5  6  7  8  9  10  11  12  22  25  29  30  31  32 0
 6-311+G(2d,p)
 ****
 33  36  37 0
 6-311+G(2d,p)
 ****
 1  2  13  14  15  16  17  18  19  20  21  23  24  26 0
 3-21G
 ****
 27  28  34  35  38  39  40  41  42  43  44  45  46  47  48 0
 3-21G
 ****


