%nproc=1
%NoSave
%Mem=1900MB
#P OB98/GEN NMR

erre ene a

0 1
  C     -172.495    -445.931    -407.763
  O     -171.895    -444.705    -408.130
  H     -172.614    -446.539    -408.664
  H     -173.479    -445.758    -407.322
  H     -171.858    -446.474    -407.058
  P     -171.608    -443.621    -406.979
  C     -173.467    -442.190    -408.089
  O     -172.974    -442.774    -406.891
  C     -174.957    -442.488    -408.246
  O     -175.256    -443.862    -407.920
  C     -175.871    -441.671    -407.338
  O     -176.011    -440.315    -407.731
  C     -177.162    -442.453    -407.499
  O     -177.757    -442.153    -408.776
  C     -176.633    -443.908    -407.456
  N     -176.706    -444.493    -406.117
  C     -177.963    -444.503    -405.502
  O     -178.943    -444.026    -406.074
  N     -178.075    -445.021    -404.233
  C     -177.025    -445.472    -403.622
  N     -177.188    -445.967    -402.367
  C     -175.674    -445.462    -404.224
  C     -175.592    -444.968    -405.460
  O     -170.361    -442.811    -407.136
  O     -171.661    -444.460    -405.615
  H     -177.038    -442.169    -409.434
  H     -171.477    -443.833    -404.872
  H     -174.822    -445.820    -403.665
  H     -174.630    -444.919    -405.968
  H     -177.189    -444.548    -408.155
  H     -177.908    -442.224    -406.733
  H     -175.552    -441.743    -406.293
  H     -175.208    -442.344    -409.306
  H     -178.126    -445.960    -401.982
  H     -172.894    -442.600    -408.927
  H     -176.416    -446.265    -401.788
  H     -173.330    -441.106    -408.061
  P     -175.297    -439.214    -406.807
  C     -177.658    -438.519    -405.937
  O     -176.324    -438.886    -405.621
  O     -175.317    -437.905    -407.717
  O     -173.915    -439.572    -406.340
  H     -174.458    -437.775    -408.160
  H     -178.201    -438.337    -405.033
  H     -178.127    -439.312    -406.481
  H     -177.652    -437.631    -406.535

 6  7  8  9  10  11  12  13  14  15  16  26  30  31  32  33  35 0
 6-311+G(2d,p)
 ****
 37  38 0
 6-311+G(2d,p)
 ****
 1  2  3  4  5  17  18  19  20  21  22  23  24  25 0
 3-21G
 ****
 27  28  29  34  36  39  40  41  42  43  44  45  46 0
 3-21G
 ****


