%nproc=1
%NoSave
%Mem=1900MB
#P OB98/GEN NMR

erre ene a

0 1
  C     -232.144    -542.402    -271.396
  O     -231.045    -542.700    -270.562
  H     -232.513    -541.402    -271.150
  H     -232.948    -543.127    -271.230
  H     -231.840    -542.418    -272.445
  P     -230.346    -544.128    -270.782
  C     -230.080    -545.350    -273.066
  O     -229.881    -544.163    -272.320
  C     -228.960    -545.522    -274.102
  O     -228.992    -544.388    -275.020
  C     -227.547    -545.558    -273.491
  O     -226.715    -546.353    -274.352
  C     -227.133    -544.095    -273.589
  O     -225.747    -543.946    -273.385
  C     -227.687    -543.766    -274.975
  N     -225.091    -539.436    -275.815
  C     -224.681    -540.717    -275.661
  N     -225.435    -541.817    -275.449
  C     -226.743    -541.509    -275.435
  C     -227.312    -540.254    -275.594
  C     -226.422    -539.180    -275.789
  N     -226.835    -537.874    -275.947
  N     -228.691    -540.331    -275.516
  C     -228.948    -541.612    -275.315
  N     -227.801    -542.354    -275.250
  O     -231.577    -545.151    -270.728
  O     -229.282    -544.482    -269.793
  H     -225.238    -544.451    -274.055
  H     -231.666    -545.516    -269.829
  H     -223.608    -540.874    -275.697
  H     -229.934    -542.043    -275.200
  H     -227.083    -544.214    -275.772
  H     -227.634    -543.499    -272.820
  H     -227.521    -545.966    -272.479
  H     -229.161    -546.420    -274.701
  H     -231.049    -545.290    -273.575
  H     -230.087    -546.216    -272.394
  H     -226.138    -537.162    -276.067
  H     -227.824    -537.665    -275.907
  P     -226.303    -547.837    -273.894
  C     -227.626    -550.096    -273.799
  O     -227.379    -548.871    -274.481
  O     -226.679    -547.819    -272.335
  O     -224.867    -548.202    -274.088
  H     -226.107    -548.447    -271.850
  H     -228.367    -550.656    -274.329
  H     -227.976    -549.889    -272.809
  H     -226.720    -550.664    -273.746

 6  7  8  9  10  11  12  13  14  15  25  28  32  33  34  35 0
 6-311+G(2d,p)
 ****
 36  37  40 0
 6-311+G(2d,p)
 ****
 1  2  3  4  5  16  17  18  19  20  21  22  23  24 0
 3-21G
 ****
 26  27  29  30  31  38  39 41  42  43  44  45  46  47  48 0
 3-21G
 ****


