%nproc=1
%NoSave
%Mem=1900MB
#P OB98/GEN NMR

erre ene a

0 1
  C     -443.057     450.669     -85.237
  O     -443.529     450.851     -86.562
  P     -444.688     449.868     -87.080
  C     -444.870     448.071     -88.950
  O     -444.013     448.861     -88.132
  C     -444.392     448.081     -90.404
  O     -444.544     449.426     -90.938
  C     -442.922     447.673     -90.596
  O     -442.851     446.970     -91.843
  C     -442.228     449.019     -90.684
  O     -440.928     448.959     -91.241
  C     -443.260     449.809     -91.484
  N     -441.574     453.966     -93.940
  C     -441.698     452.680     -94.333
  N     -442.164     451.627     -93.625
  C     -442.534     452.014     -92.394
  C     -442.449     453.282     -91.845
  C     -441.941     454.290     -92.680
  N     -441.808     455.606     -92.276
  N     -442.896     453.284     -90.541
  C     -443.246     452.038     -90.301
  N     -443.069     451.236     -91.397
  O     -445.581     450.821     -88.002
  O     -445.494     449.218     -86.000
  H     -440.378     448.319     -90.748
  H     -446.533     450.621     -87.900
  H     -441.382     452.460     -95.349
  H     -443.622     451.663     -89.360
  H     -443.251     449.534     -92.549
  H     -442.123     449.428     -89.673
  H     -442.548     447.024     -89.798
  H     -445.050     447.424     -90.985
  H     -445.881     448.487     -88.919
  H     -441.252     456.205     -92.871
  H     -441.886     455.788     -91.281
  H     -444.909     447.053     -88.554
  P     -441.565     446.060     -92.152
  C     -439.068     446.649     -92.282
  O     -440.323     446.991     -91.731
  O     -441.506     446.146     -93.748
  O     -441.599     444.674     -91.600
  H     -441.549     447.068     -94.060
  H     -438.341     447.418     -91.995
  H     -439.129     446.613     -93.373
  H     -438.734     445.685     -91.887
  H     -442.292     451.388     -85.029
  H     -442.657     449.682     -85.133
  H     -443.866     450.800     -84.549

 3  4  5  6  7  8  9  10  11  12  22  25  29  30  31  32 0
 6-311+G(2d,p)
 ****
 33  36  37 0
 6-311+G(2d,p)
 ****
 1  2  13  14  15  16  17  18  19  20  21  23  24  26 0
 3-21G
 ****
 27  28  34  35  38  39  40  41  42  43  44  45  46  47  48 0
 3-21G
 ****


