%nproc=1
%NoSave
%Mem=1900MB
#P OB98/GEN NMR

erre ene a

0 1
  C      821.519     137.652     217.339
  O      822.294     136.650     217.974
  H      820.725     137.965     218.019
  H      821.061     137.241     216.431
  H      822.141     138.513     217.088
  P      823.648     136.221     217.236
  C      822.842     133.725     217.293
  O      823.883     134.661     217.545
  C      823.016     132.490     218.178
  O      824.269     131.831     217.901
  C      823.099     132.800     219.659
  O      821.844     133.165     220.216
  C      823.624     131.476     220.199
  O      822.568     130.534     220.420
  C      824.555     131.009     219.054
  N      825.958     131.063     219.443
  C      826.273     130.411     220.642
  O      825.392     129.828     221.274
  N      827.560     130.476     221.105
  C      828.452     131.153     220.446
  N      829.707     131.196     220.974
  C      828.167     131.853     219.178
  C      826.906     131.771     218.739
  O      824.771     136.940     218.121
  O      823.704     136.559     215.791
  H      822.044     130.881     221.170
  H      824.672     136.793     219.073
  H      828.942     132.394     218.662
  H      826.599     132.257     217.812
  H      824.320     129.974     218.771
  H      824.133     131.612     221.160
  H      823.857     133.575     219.853
  H      822.201     131.792     217.962
  H      829.853     130.745     221.869
  H      822.833     133.432     216.236
  H      830.457     131.757     220.584
  H      821.889     134.217     217.508
  P      821.549     134.666     220.690
  C      821.878     134.400     223.226
  O      820.938     134.576     222.172
  O      820.736     135.495     219.745
  O      823.013     135.258     220.964
  H      823.528     134.776     221.640
  H      821.361     134.354     224.161
  H      822.561     135.224     223.236
  H      822.419     133.490     223.073

 6  7  8  9  10  11  12  13  14  15  16  26  30  31  32  33  35 0
 6-311+G(2d,p)
 ****
 37  38 0
 6-311+G(2d,p)
 ****
 1  2  3  4  5  17  18  19  20  21  22  23  24  25 0
 3-21G
 ****
 27  28  29  34  36  39  40  41  42  43  44  45  46 0
 3-21G
 ****


