%nproc=1
%NoSave
%Mem=1900MB
#P OB98/GEN NMR

erre ene a

0 1
  C      137.916     430.883     104.351
  O      137.566     431.995     105.151
  P      136.877     433.261     104.445
  C      138.480     435.068     105.493
  O      137.171     434.530     105.389
  C      138.490     436.255     106.464
  O      137.752     437.360     105.862
  C      137.864     435.967     107.830
  O      138.603     436.716     108.806
  C      136.457     436.531     107.687
  O      135.850     436.827     108.937
  C      136.737     437.754     106.810
  N      135.546     438.251     106.108
  C      134.518     438.803     106.872
  O      134.539     438.873     108.106
  N      133.426     439.251     106.169
  C      133.239     439.139     104.821
  O      132.236     439.540     104.246
  C      134.343     438.509     104.076
  C      135.422     438.109     104.734
  O      135.326     432.947     104.692
  O      137.266     433.443     103.015
  H      135.151     432.519     105.548
  H      135.013     437.298     108.765
  H      132.687     439.685     106.697
  H      134.217     438.387     102.997
  H      136.245     437.635     104.210
  H      137.161     438.565     107.415
  H      135.825     435.800     107.161
  H      137.880     434.901     108.088
  H      139.531     436.589     106.579
  H      138.807     435.408     104.503
  H      139.168     434.280     105.821
  P      139.683     435.920     109.712
  C      138.172     434.893     111.596
  O      139.107     435.885     111.209
  O      140.836     437.029     109.807
  O      140.162     434.628     109.136
  H      140.510     437.910     110.041
  H      138.168     434.829     112.690
  H      138.431     433.917     111.189
  H      137.172     435.181     111.259
  H      138.361     430.128     104.965
  H      138.614     431.190     103.600
  H      137.038     430.490     103.883

 3  4  5  6  7  8  9  10  11  12  13  24  28  29  30  31  32 0
 6-311+G(2d,p)
 ****
 33  34 0
 6-311+G(2d,p)
 ****
 1  2  14  15  16  17  18  19  20  21  22  23  25  26  27 0
 3-21G
 ****
 35  36  37  38  39  40  41  42  43  44  45 0
 3-21G
 ****


