%nproc=1
%NoSave
%Mem=1900MB
#P OB98/GEN NMR

erre ene a

0 1
  C       -4.929     136.462       1.091
  O       -3.621     136.952       1.335
  P       -2.636     136.232       2.381
  C       -2.237     134.256       0.756
  O       -2.712     134.669       2.028
  C       -1.053     133.300       0.916
  O       -1.473     132.173       1.732
  C       -0.510     132.737      -0.404
  O        0.907     132.593      -0.256
  C       -1.182     131.378      -0.495
  O       -0.485     130.480      -1.348
  C       -1.205     130.971       0.982
  N       -2.203     129.942       1.264
  C       -1.873     128.618       0.971
  O       -0.785     128.333       0.470
  N       -2.788     127.634       1.254
  C       -3.962     127.953       1.706
  N       -4.812     126.939       2.027
  C       -4.391     129.349       1.927
  C       -3.463     130.276       1.708
  O       -2.894     136.560       3.811
  O       -1.171     136.614       1.872
  H       -0.392     130.899      -2.225
  H       -0.861     137.490       2.217
  H       -5.391     129.565       2.279
  H       -3.679     131.324       1.867
  H       -0.215     130.618       1.293
  H       -2.197     131.498      -0.889
  H       -0.719     133.389      -1.258
  H       -0.258     133.822       1.465
  H       -4.424     126.002       2.026
  H       -1.904     135.142       0.208
  H       -5.583     127.087       2.668
  H       -3.050     133.785       0.193
  P        1.818     132.608      -1.579
  C        2.283     135.131      -1.174
  O        1.917     134.122      -2.093
  O        0.826     131.954      -2.662
  O        3.090     131.828      -1.521
  H        1.356     131.544      -3.371
  H        2.306     136.092      -1.699
  H        3.279     134.934      -0.767
  H        1.554     135.193      -0.363
  H       -5.413     137.083       0.366
  H       -5.490     136.474       2.002
  H       -4.871     135.460       0.721

 3  4  5  6  7  8  9  10  11  12  13  23  27  28  29  30  32 0
 6-311+G(2d,p)
 ****
 34  35 0
 6-311+G(2d,p)
 ****
 1  2  14  15  16  17  18  19  20  21  22  24  25  26 0
 3-21G
 ****
 31  33  36  37  38  39  40  41  42  43  44  45  46 0
 3-21G
 ****


