%nproc=1
%NoSave
%Mem=1900MB
#P OB98/GEN NMR

erre ene a

0 1
  C      -29.275       1.013      22.259
  O      -29.911       2.271      22.369
  H      -28.382       1.125      21.640
  H      -29.937       0.280      21.791
  H      -28.970       0.659      23.248
  P      -31.380       2.320      23.015
  C      -32.936       4.248      23.743
  O      -31.594       3.844      23.479
  C      -32.968       5.594      24.472
  O      -32.600       5.419      25.854
  C      -31.982       6.612      23.922
  O      -32.305       7.094      22.636
  C      -31.844       7.591      25.079
  O      -32.843       8.605      25.086
  C      -32.030       6.665      26.305
  N      -30.783       6.461      27.031
  C      -30.268       7.580      27.677
  O      -30.797       8.691      27.637
  N      -29.089       7.394      28.344
  C      -28.368       6.237      28.383
  O      -27.294       6.146      28.965
  C      -28.949       5.095      27.660
  C      -30.113       5.255      27.026
  O      -31.652       1.316      24.094
  O      -32.354       2.187      21.753
  H      -32.947       8.911      24.164
  H      -33.267       1.939      22.034
  H      -28.706       8.191      28.826
  H      -28.402       4.162      27.667
  H      -30.562       4.427      26.484
  H      -32.756       7.102      27.003
  H      -30.876       8.097      25.062
  H      -31.007       6.119      23.822
  H      -33.994       5.979      24.439
  H      -33.394       3.484      24.379
  H      -33.494       4.309      22.803
  P      -31.533       8.302      21.932
  C      -30.978       9.005      19.493
  O      -31.377       7.957      20.370
  O      -30.357       8.865      22.662
  O      -32.678       9.440      21.914
  H      -32.235      10.303      22.030
  H      -30.917       8.629      18.493
  H      -30.021       9.377      19.794
  H      -31.697       9.797      19.533

 6  7  8  9  10  11  12  13  14  15  16  26  31  32  33  34  35 0
 6-311+G(2d,p)
 ****
 36  37 0
 6-311+G(2d,p)
 ****
 1  2  3  4  5  17  18  19  20  21  22  23  24  25 0
 3-21G
 ****
 27  28  29  30  38  39  40  41  42  43  44  45 0
 3-21G
 ****


