%nproc=1
%NoSave
%Mem=1900MB
#P OB98/GEN NMR

erre ene a

0 1
  C     -170.601      39.556    -192.351
  O     -171.241      40.777    -191.949
  P     -171.551      41.983    -192.963
  C     -170.965      43.934    -191.384
  O     -171.984      43.284    -192.128
  C     -171.534      44.672    -190.164
  O     -172.162      45.925    -190.588
  C     -172.584      43.876    -189.370
  O     -172.357      44.165    -187.985
  C     -173.885      44.492    -189.860
  O     -174.989      44.248    -189.008
  C     -173.460      45.968    -189.947
  N     -174.368      46.840    -190.685
  C     -175.626      47.089    -190.119
  O     -175.979      46.554    -189.073
  N     -176.478      47.948    -190.780
  C     -176.119      48.488    -191.896
  N     -177.008      49.335    -192.485
  C     -174.815      48.243    -192.532
  C     -174.000      47.417    -191.884
  O     -172.522      41.620    -194.042
  O     -170.136      42.387    -193.598
  H     -170.265      42.646    -194.525
  H     -175.722      44.828    -189.292
  H     -174.552      48.719    -193.465
  H     -173.006      47.197    -192.269
  H     -173.307      46.361    -188.938
  H     -174.122      44.077    -190.847
  H     -172.525      42.794    -189.521
  H     -170.697      44.949    -189.517
  H     -177.892      49.495    -192.013
  H     -170.463      44.661    -192.036
  H     -176.831      49.820    -193.350
  H     -170.224      43.192    -191.069
  P     -172.264      42.957    -186.930
  C     -174.765      42.974    -186.211
  O     -173.416      43.173    -185.840
  O     -170.949      43.351    -186.095
  O     -172.115      41.584    -187.502
  H     -170.553      42.544    -185.717
  H     -175.268      42.406    -185.429
  H     -174.864      42.431    -187.149
  H     -175.257      43.952    -186.310
  H     -170.504      38.909    -191.504
  H     -169.631      39.775    -192.746
  H     -171.191      39.074    -193.102

 3  4  5  6  7  8  9  10  11  12  13  24  27  28  29  30  32 0
 6-311+G(2d,p)
 ****
 34  35 0
 6-311+G(2d,p)
 ****
 1  2  14  15  16  17  18  19  20  21  22  23  25  26 0
 3-21G
 ****
 31  33  36  37  38  39  40  41  42  43  44  45  46 0
 3-21G
 ****


