%nproc=1
%NoSave
%Mem=1900MB
#P OB98/GEN NMR

erre ene a

0 1
  C      -10.327     131.865     109.756
  O      -10.232     131.625     111.144
  H      -10.423     130.905     109.242
  H       -9.425     132.364     109.395
  H      -11.205     132.474     109.526
  P      -10.216     132.876     112.146
  C      -12.336     132.330     113.504
  O      -11.741     133.181     112.533
  C      -13.783     132.749     113.744
  O      -14.476     131.740     114.513
  C      -13.929     134.045     114.533
  O      -13.645     135.165     113.719
  C      -15.372     133.928     114.997
  O      -16.283     134.288     113.947
  C      -15.476     132.416     115.309
  N      -15.309     132.117     116.733
  C      -16.460     131.746     117.419
  O      -17.566     131.668     116.891
  N      -16.303     131.508     118.759
  C      -15.153     131.693     119.472
  O      -15.110     131.682     120.698
  C      -13.956     132.012     118.681
  C      -14.089     132.222     117.370
  O       -9.430     134.060     111.692
  O       -9.621     132.262     113.502
  H       -8.679     132.505     113.579
  H      -16.002     133.789     113.154
  H      -17.139     131.284     119.277
  H      -13.011     132.103     119.201
  H      -13.225     132.489     116.772
  H      -16.451     132.025     114.992
  H      -15.590     134.577     115.847
  H      -13.273     134.026     115.411
  H      -14.282     132.829     112.769
  H      -11.771     132.421     114.439
  H      -12.282     131.295     113.155
  P      -13.589     136.641     114.332
  C      -11.060     136.980     114.568
  O      -12.283     136.747     115.254
  O      -14.849     137.103     114.987
  O      -13.223     137.573     113.081
  H      -13.880     138.293     113.016
  H      -10.259     137.033     115.275
  H      -11.123     137.903     114.031
  H      -10.878     136.179     113.882

 6  7  8  9  10  11  12  13  14  15  16  27  31  32  33  34  35 0
 6-311+G(2d,p)
 ****
 36  37 0
 6-311+G(2d,p)
 ****
 1  2  3  4  5  17  18  19  20  21  22  23  24  25 0
 3-21G
 ****
 26  28  29  30  38  39  40  41  42  43  44  45 0
 3-21G
 ****


