%nproc=1
%NoSave
%Mem=1900MB
#P OB98/GEN NMR

erre ene a

0 1
  C      138.654      75.262      52.197
  O      138.477      74.082      52.959
  H      139.353      75.917      52.723
  H      137.699      75.785      52.081
  H      139.069      75.014      51.216
  P      137.451      72.995      52.376
  C      134.928      73.162      51.819
  O      136.003      73.645      52.612
  C      133.747      74.127      51.872
  O      133.235      74.213      53.215
  C      134.080      75.552      51.449
  O      134.037      75.673      50.036
  C      132.944      76.323      52.107
  O      131.760      76.229      51.291
  C      132.733      75.558      53.425
  N      132.212      78.635      57.504
  C      131.411      78.417      56.436
  N      131.637      77.629      55.362
  C      132.828      77.017      55.463
  C      133.752      77.144      56.491
  C      133.403      77.995      57.554
  N      134.222      78.216      58.639
  N      134.866      76.368      56.251
  C      134.593      75.737      55.126
  N      133.389      76.122      54.591
  O      137.636      71.600      52.869
  O      137.663      73.192      50.799
  H      131.942      76.726      50.471
  H      137.748      74.137      50.582
  H      130.464      78.950      56.443
  H      135.222      74.980      54.670
  H      131.668      75.473      53.679
  H      133.168      77.385      52.222
  H      135.033      75.889      51.870
  H      132.945      73.712      51.245
  H      134.613      72.171      52.170
  H      133.979      78.981      59.252
  H      135.159      77.839      58.608
  H      135.292      73.064      50.790
  P      134.932      76.765      49.271
  C      135.053      79.331      49.380
  O      134.260      78.177      49.627
  O      135.138      76.490      47.823
  O      136.301      76.800      50.096
  H      137.000      77.231      49.566
  H      134.503      80.207      49.654
  H      135.302      79.377      48.340
  H      135.951      79.278      49.960

 6  7  8  9  10  11  12  13  14  15  25  28  32  33  34  35 0
 6-311+G(2d,p)
 ****
 36  39  40 0
 6-311+G(2d,p)
 ****
 1  2  3  4  5  16  17  18  19  20  21  22  23  24 0
 3-21G
 ****
 26  27  29  30  31  37  38  41  42  43  44  45  46  47 0
 3-21G
 ****
 48 0
 3-21G
 ****


