%nproc=1
%NoSave
%Mem=1900MB
#P OB98/GEN NMR

erre ene a

0 1
  C     -435.005    -297.262     -55.484
  O     -435.524    -298.036     -56.548
  H     -434.234    -297.842     -54.971
  H     -435.798    -297.018     -54.769
  H     -434.557    -296.342     -55.870
  P     -436.717    -297.387     -57.401
  C     -439.292    -297.175     -57.117
  O     -438.076    -297.703     -56.607
  C     -440.283    -296.979     -55.973
  O     -439.643    -296.267     -54.888
  C     -441.501    -296.143     -56.343
  O     -442.464    -296.888     -57.070
  C     -441.995    -295.728     -54.968
  O     -442.814    -296.743     -54.371
  C     -440.678    -295.546     -54.182
  N     -440.332    -294.139     -53.997
  C     -440.439    -293.660     -52.695
  O     -440.792    -294.358     -51.744
  N     -440.151    -292.332     -52.519
  C     -439.819    -291.447     -53.503
  O     -439.651    -290.252     -53.295
  C     -439.714    -292.014     -54.863
  C     -439.978    -293.311     -55.045
  O     -436.797    -298.335     -58.689
  O     -436.526    -295.951     -57.768
  H     -436.378    -297.894     -59.452
  H     -442.989    -296.447     -53.452
  H     -440.233    -291.965     -51.585
  H     -439.446    -291.343     -55.669
  H     -439.928    -293.743     -56.038
  H     -440.760    -296.009     -53.189
  H     -442.601    -294.820     -55.011
  H     -441.194    -295.245     -56.895
  H     -440.590    -297.966     -55.602
  H     -439.720    -297.876     -57.841
  H     -439.086    -296.227     -57.624
  P     -443.086    -296.243     -58.400
  C     -444.145    -293.904     -58.948
  O     -443.718    -294.831     -57.967
  O     -444.360    -297.184     -58.631
  O     -442.126    -296.181     -59.540
  H     -444.777    -297.475     -57.804
  H     -444.534    -293.030     -58.468
  H     -444.908    -294.349     -59.551
  H     -443.315    -293.632     -59.566

 6  7  8  9  10  11  12  13  14  15  16  27  31  32  33  34  35 0
 6-311+G(2d,p)
 ****
 36  37 0
 6-311+G(2d,p)
 ****
 1  2  3  4  5  17  18  19  20  21  22  23  24  25 0
 3-21G
 ****
 26  28  29  30  38  39  40  41  42  43  44  45 0
 3-21G
 ****


