%nproc=1
%NoSave
%Mem=1900MB
#P OB98/GEN NMR

erre ene a

0 1
  C     -773.456    -882.530    -892.900
  O     -772.543    -881.797    -893.680
  H     -772.922    -883.008    -892.070
  H     -773.937    -883.304    -893.500
  H     -774.219    -881.867    -892.470
  P     -773.148    -880.774    -894.750
  C     -772.405    -878.784    -893.250
  O     -773.470    -879.399    -893.960
  C     -772.587    -877.257    -893.210
  O     -772.619    -876.765    -894.580
  C     -773.902    -876.824    -892.530
  O     -773.653    -875.633    -891.770
  C     -774.822    -876.505    -893.700
  O     -775.834    -875.558    -893.350
  C     -773.812    -875.979    -894.740
  N     -776.032    -873.443    -898.490
  C     -775.547    -872.997    -897.260
  N     -775.692    -871.676    -897.000
  N     -774.979    -873.778    -896.380
  C     -774.887    -875.059    -896.800
  C     -775.331    -875.623    -897.960
  C     -775.969    -874.753    -898.930
  O     -776.456    -875.097    -900.000
  N     -775.081    -876.975    -897.990
  C     -774.489    -877.231    -896.840
  N     -774.332    -876.100    -896.070
  O     -774.606    -881.368    -895.050
  O     -772.357    -880.603    -896.010
  H     -775.410    -874.853    -892.820
  H     -774.658    -881.655    -895.980
  H     -776.478    -872.791    -899.120
  H     -774.140    -878.212    -896.510
  H     -773.572    -874.928    -894.570
  H     -775.297    -877.429    -894.050
  H     -776.059    -871.012    -897.650
  H     -774.323    -877.591    -891.880
  H     -775.293    -871.318    -896.130
  H     -771.716    -876.819    -892.720
  H     -771.461    -879.020    -893.760
  H     -772.373    -879.185    -892.220
  P     -772.782    -875.787    -890.440
  C     -770.635    -874.576    -891.230
  O     -771.220    -875.802    -890.830
  O     -773.062    -877.322    -889.990
  O     -773.161    -874.832    -889.360
  H     -773.639    -877.321    -889.210
  H     -769.601    -874.732    -891.458
  H     -770.722    -873.864    -890.436
  H     -771.140    -874.206    -892.098

 6  7  8  9  10  11  12  13  14  15  26  29  33  34 0
 6-311+G(2d,p)
 ****
 36  38  39  40  41 0
 6-311+G(2d,p)
 ****
 1  2  3  4  5  16  17  18  19  20  21  22  23  24  25 0
 3-21G
 ****
 27  28  30  31  32  35  37  42  43  44  45  46  47 0
 3-21G
 ****
 48  49 0
 3-21G
 ****


