%nproc=1
%NoSave
%Mem=1900MB
#P OB98/GEN NMR

erre ene a

0 1
  C      -87.961      38.100       8.388
  O      -88.058      39.499       8.223
  H      -87.044      37.876       8.939
  H      -87.911      37.606       7.415
  H      -88.812      37.715       8.956
  P      -89.382      40.109       7.559
  C      -88.337      39.907       5.212
  O      -89.437      39.570       6.050
  C      -88.839      40.267       3.817
  O      -89.426      39.109       3.180
  C      -89.922      41.340       3.808
  O      -89.367      42.619       4.037
  C      -90.513      41.127       2.423
  O      -89.691      41.734       1.413
  C      -90.470      39.585       2.301
  N      -91.754      38.954       2.618
  C      -92.767      39.123       1.681
  O      -92.624      39.761       0.639
  N      -93.977      38.565       2.003
  C      -94.281      37.954       3.185
  O      -95.426      37.667       3.521
  C      -93.154      37.740       4.104
  C      -91.964      38.256       3.790
  O      -89.564      41.583       7.712
  O      -90.567      39.297       8.271
  H      -90.963      39.851       8.971
  H      -90.194      41.676       0.576
  H      -94.731      38.724       1.352
  H      -93.340      37.201       5.023
  H      -91.125      38.135       4.466
  H      -90.187      39.288       1.282
  H      -91.510      41.558       2.324
  H      -90.688      41.108       4.558
  H      -87.977      40.581       3.215
  H      -87.672      39.038       5.147
  H      -87.789      40.742       5.658
  P      -90.135      43.710       4.921
  C      -90.641      45.009       2.770
  O      -91.177      44.471       3.973
  O      -89.254      44.610       5.723
  O      -91.086      42.844       5.877
  H      -90.929      43.105       6.804
  H      -91.420      45.492       2.217
  H      -90.223      44.219       2.181
  H      -89.877      45.720       3.007

 6  7  8  9  10  11  12  13  14  15  16  27  31  32  33  34  35 0
 6-311+G(2d,p)
 ****
 36  37 0
 6-311+G(2d,p)
 ****
 1  2  3  4  5  17  18  19  20  21  22  23  24  25 0
 3-21G
 ****
 26  28  29  30  38  39  40  41  42  43  44  45 0
 3-21G
 ****


