%nproc=1
%NoSave
%Mem=1900MB
#P OB98/GEN NMR

erre ene a

0 1
  C      -56.850     125.602     327.805
  O      -57.645     124.626     327.158
  H      -57.353     125.913     328.725
  H      -56.718     126.483     327.170
  H      -55.873     125.184     328.062
  P      -57.195     124.125     325.704
  C      -57.105     125.328     323.415
  O      -57.751     125.223     324.679
  C      -57.539     126.610     322.711
  O      -57.413     127.737     323.604
  C      -56.683     126.946     321.497
  O      -57.021     126.122     320.399
  C      -56.992     128.421     321.329
  O      -58.246     128.619     320.664
  C      -57.067     128.890     322.800
  N      -55.822     129.496     323.264
  C      -55.672     130.861     323.010
  O      -56.559     131.490     322.431
  N      -54.506     131.475     323.399
  C      -53.585     130.794     324.002
  N      -52.456     131.461     324.361
  C      -53.709     129.355     324.301
  C      -54.840     128.774     323.904
  O      -57.537     122.713     325.341
  O      -55.615     124.383     325.690
  H      -58.166     128.162     319.804
  H      -55.138     123.601     326.022
  H      -52.917     128.827     324.812
  H      -55.013     127.719     324.090
  H      -57.872     129.622     322.932
  H      -56.225     128.927     320.746
  H      -55.621     126.846     321.745
  H      -58.596     126.514     322.436
  H      -52.410     132.447     324.125
  H      -57.402     124.455     322.827
  H      -51.714     131.058     324.910
  H      -56.015     125.313     323.536
  P      -56.270     126.290     318.991
  C      -55.889     128.480     317.682
  O      -56.831     127.663     318.371
  O      -56.332     125.105     318.090
  O      -54.776     126.682     319.425
  H      -54.285     125.900     319.774
  H      -56.378     129.359     317.318
  H      -55.478     127.934     316.859
  H      -55.103     128.761     318.352

 6  7  8  9  10  11  12  13  14  15  16  26  30  31  32  33  35 0
 6-311+G(2d,p)
 ****
 37  38 0
 6-311+G(2d,p)
 ****
 1  2  3  4  5  17  18  19  20  21  22  23  24  25 0
 3-21G
 ****
 27  28  29  34  36  39  40  41  42  43  44  45  46 0
 3-21G
 ****


