%nproc=1
%NoSave
%Mem=1900MB
#P OB98/GEN NMR

erre ene a

0 1
  C      -63.486    -213.700    -129.288
  O      -62.160    -213.499    -129.730
  H      -63.500    -214.554    -128.605
  H      -64.138    -213.923    -130.136
  H      -63.858    -212.821    -128.756
  P      -61.831    -212.204    -130.615
  C      -62.446    -211.352    -132.968
  O      -62.492    -212.443    -132.055
  C      -61.937    -211.832    -134.324
  O      -62.647    -213.025    -134.724
  C      -62.155    -210.833    -135.452
  O      -61.230    -209.765    -135.388
  C      -62.014    -211.736    -136.665
  O      -60.637    -211.948    -136.997
  C      -62.664    -213.048    -136.169
  N      -64.024    -213.214    -136.679
  C      -64.223    -214.264    -137.568
  O      -63.332    -215.035    -137.920
  N      -65.482    -214.366    -138.097
  C      -66.488    -213.458    -137.934
  O      -67.508    -213.454    -138.616
  C      -66.242    -212.406    -136.937
  C      -65.036    -212.325    -136.372
  O      -60.400    -211.783    -130.635
  O      -62.765    -211.068    -129.979
  H      -62.223    -210.491    -129.407
  H      -60.236    -211.056    -137.053
  H      -65.621    -215.101    -138.777
  H      -67.042    -211.709    -136.725
  H      -64.818    -211.537    -135.658
  H      -62.065    -213.913    -136.480
  H      -62.506    -211.312    -137.542
  H      -63.181    -210.448    -135.413
  H      -60.874    -212.085    -134.225
  H      -61.765    -210.591    -132.572
  H      -63.448    -210.921    -133.059
  P      -61.550    -208.375    -136.114
  C      -61.760    -207.472    -138.510
  O      -61.474    -208.606    -137.699
  O      -60.773    -207.202    -135.615
  O      -63.118    -208.159    -135.865
  H      -63.261    -207.258    -135.517
  H      -61.679    -207.742    -139.542
  H      -61.062    -206.691    -138.290
  H      -62.753    -207.130    -138.307

 6  7  8  9  10  11  12  13  14  15  16  27  31  32  33  34  35 0
 6-311+G(2d,p)
 ****
 36  37 0
 6-311+G(2d,p)
 ****
 1  2  3  4  5  17  18  19  20  21  22  23  24  25 0
 3-21G
 ****
 26  28  29  30  38  39  40  41  42  43  44  45 0
 3-21G
 ****


