%nproc=1
%NoSave
%Mem=1900MB
#P OB98/GEN NMR

erre ene a

0 1
  C      150.130     -48.064     -74.741
  O      149.400     -47.727     -75.903
  H      149.487     -47.996     -73.860
  H      150.490     -49.093     -74.836
  H      150.990     -47.399     -74.627
  P      148.772     -46.250     -75.942
  C      146.470     -46.699     -74.848
  O      147.767     -46.143     -74.691
  C      145.594     -46.327     -73.655
  O      146.080     -47.051     -72.494
  C      145.596     -44.826     -73.318
  O      144.256     -44.340     -73.182
  C      146.278     -44.751     -71.965
  O      145.751     -43.723     -71.134
  C      146.030     -46.139     -71.388
  N      147.940     -44.826     -66.847
  C      146.753     -44.552     -67.430
  N      146.266     -45.011     -68.600
  C      147.131     -45.867     -69.171
  C      148.366     -46.263     -68.686
  C      148.777     -45.685     -67.473
  N      150.011     -45.922     -66.907
  N      148.973     -47.151     -69.554
  C      148.136     -47.255     -70.567
  N      147.017     -46.486     -70.387
  O      147.793     -46.303     -77.210
  O      149.773     -45.153     -76.067
  H      144.781     -43.811     -71.143
  H      148.092     -45.643     -77.864
  H      146.110     -43.863     -66.887
  H      148.310     -47.830     -71.468
  H      145.036     -46.219     -70.932
  H      147.347     -44.564     -72.113
  H      146.124     -44.229     -74.066
  H      144.571     -46.675     -73.847
  H      146.543     -47.790     -74.910
  H      150.270     -45.379     -66.099
  H      150.680     -46.474     -67.425
  H      146.030     -46.323     -75.778
  P      143.771     -43.277     -74.289
  C      144.487     -41.051     -73.158
  O      144.731     -41.991     -74.197
  O      142.371     -42.761     -73.709
  O      143.614     -43.859     -75.653
  H      141.666     -42.903     -74.368
  H      145.199     -40.255     -73.223
  H      144.580     -41.536     -72.209
  H      143.499     -40.654     -73.261

 6  7  8  9  10  11  12  13  14  15  25  28  32  33  34  35 0
 6-311+G(2d,p)
 ****
 36  39  40 0
 6-311+G(2d,p)
 ****
 1  2  3  4  5  16  17  18  19  20  21  22  23  24 0
 3-21G
 ****
 26  27  29  30  31  37  38  41  42  43  44  45  46  47  48 0
 3-21G
 ****


