%nproc=1
%NoSave
%Mem=1900MB
#P OB98/GEN NMR

erre ene a

0 1
  C      -21.374    -173.206     108.455
  O      -20.881    -172.308     107.481
  H      -22.363    -172.871     108.773
  H      -20.710    -173.213     109.323
  H      -21.459    -174.217     108.043
  P      -19.543    -172.729     106.701
  C      -17.984    -170.688     107.126
  O      -18.846    -171.363     106.219
  C      -17.911    -169.202     106.775
  O      -19.176    -168.577     107.139
  C      -16.798    -168.440     107.505
  O      -16.268    -167.447     106.614
  C      -17.537    -167.752     108.638
  O      -16.872    -166.600     109.144
  C      -18.869    -167.428     107.955
  N      -19.943    -167.166     108.915
  C      -19.887    -165.971     109.629
  O      -19.048    -165.085     109.448
  N      -20.851    -165.811     110.592
  C      -21.823    -166.713     110.918
  O      -22.646    -166.521     111.805
  C      -21.825    -167.958     110.139
  C      -20.899    -168.125     109.190
  O      -20.104    -173.359     105.339
  O      -18.640    -173.663     107.436
  H      -20.259    -174.316     105.445
  H      -16.048    -166.905     109.580
  H      -20.822    -164.950     111.118
  H      -22.577    -168.703     110.374
  H      -20.861    -169.044     108.608
  H      -18.760    -166.569     107.285
  H      -17.681    -168.450     109.467
  H      -15.984    -169.076     107.871
  H      -17.806    -169.102     105.685
  H      -16.979    -171.122     107.061
  H      -18.362    -170.822     108.148
  P      -14.672    -167.389     106.433
  C      -14.779    -164.784     106.737
  O      -14.347    -165.891     105.955
  O      -14.481    -168.280     105.122
  O      -13.932    -167.863     107.643
  H      -15.204    -168.180     104.482
  H      -14.474    -163.873     106.265
  H      -14.342    -164.844     107.712
  H      -15.845    -164.802     106.822

 6  7  8  9  10  11  12  13  14  15  16  27  31  32  33  34  35 0
 6-311+G(2d,p)
 ****
 36  37 0
 6-311+G(2d,p)
 ****
 1  2  3  4  5  17  18  19  20  21  22  23  24  25 0
 3-21G
 ****
 26  28  29  30  38  39  40  41  42  43  44  45 0
 3-21G
 ****


