%nproc=1
%NoSave
%Mem=1900MB
#P OB98/GEN NMR

erre ene a

0 1
  C      -41.954    -349.818     218.447
  O      -41.482    -351.017     217.862
  H      -42.872    -350.037     219.000
  H      -42.179    -349.075     217.675
  H      -41.215    -349.419     219.146
  P      -40.201    -350.943     216.897
  C      -38.645    -350.782     218.968
  O      -39.092    -350.163     217.768
  C      -37.176    -351.162     218.852
  O      -36.341    -349.989     218.700
  C      -36.599    -351.886     220.067
  O      -37.023    -353.236     220.177
  C      -35.113    -351.766     219.770
  O      -34.746    -352.709     218.753
  C      -35.027    -350.312     219.240
  N      -34.652    -349.348     220.278
  C      -33.361    -348.805     220.192
  O      -32.607    -349.133     219.277
  N      -32.954    -347.919     221.165
  C      -33.746    -347.622     222.145
  N      -33.273    -346.783     223.106
  C      -35.114    -348.163     222.270
  C      -35.497    -349.009     221.322
  O      -40.437    -350.392     215.528
  O      -39.616    -352.433     216.891
  H      -35.015    -353.594     219.069
  H      -38.826    -352.443     216.298
  H      -35.735    -347.886     223.114
  H      -36.484    -349.463     221.351
  H      -34.310    -350.237     218.413
  H      -34.480    -351.970     220.646
  H      -36.819    -351.333     220.992
  H      -37.056    -351.763     217.936
  H      -32.308    -346.464     223.012
  H      -39.271    -351.664     219.149
  H      -33.702    -346.722     224.021
  H      -38.758    -350.090     219.814
  P      -37.340    -353.815     221.640
  C      -39.907    -353.470     221.335
  O      -38.745    -353.179     222.094
  O      -36.266    -353.061     222.561
  O      -37.271    -355.306     221.784
  H      -35.467    -353.599     222.684
  H      -40.750    -352.973     221.768
  H      -40.078    -354.526     221.335
  H      -39.771    -353.130     220.330

 6  7  8  9  10  11  12  13  14  15  16  26  30  31  32  33  35 0
 6-311+G(2d,p)
 ****
 37  38 0
 6-311+G(2d,p)
 ****
 1  2  3  4  5  17  18  19  20  21  22  23  24  25 0
 3-21G
 ****
 27  28  29  34  36  39  40  41  42  43  44  45  46 0
 3-21G
 ****


