%nproc=1
%NoSave
%Mem=1900MB
#P OB98/GEN NMR

erre ene a

0 1
  C      807.490     196.916    -875.574
  O      808.400     197.987    -875.288
  P      809.908     197.827    -875.808
  C      811.801     196.059    -875.436
  O      810.509     196.534    -875.060
  C      811.918     194.558    -875.172
  O      810.693     193.894    -875.552
  C      813.026     193.863    -875.964
  O      814.302     194.027    -875.368
  C      812.577     192.439    -875.884
  O      812.921     191.869    -874.612
  C      811.060     192.566    -876.008
  N      808.375     189.507    -879.105
  C      808.734     189.363    -877.820
  N      809.450     190.235    -877.065
  C      809.843     191.293    -877.790
  C      809.567     191.536    -879.120
  C      808.788     190.590    -879.807
  N      808.396     190.725    -881.122
  N      810.149     192.733    -879.544
  C      810.729     193.214    -878.431
  N      810.573     192.375    -877.388
  O      810.670     199.046    -875.091
  O      810.070     197.844    -877.301
  H      813.830     191.521    -874.682
  H      811.476     199.274    -875.598
  H      808.381     188.481    -877.315
  H      811.288     194.143    -878.408
  H      810.519     191.852    -875.369
  H      813.033     191.806    -876.663
  H      813.027     194.202    -877.011
  H      812.079     194.404    -874.084
  H      812.539     196.596    -874.823
  H      807.678     190.120    -881.463
  H      808.524     191.645    -881.562
  H      811.965     196.291    -876.495
  P      815.519     194.420    -876.322
  C      816.531     193.365    -878.481
  O      815.665     193.201    -877.343
  O      816.811     194.274    -875.374
  O      815.395     195.787    -876.916
  H      817.518     194.858    -875.693
  H      816.740     192.359    -878.900
  H      817.450     193.845    -878.195
  H      816.025     193.954    -879.246
  H      806.526     197.151    -875.174
  H      807.851     196.013    -875.128
  H      807.414     196.786    -876.633

 3  4  5  6  7  8  9  10  11  12  22  25  29  30  31  32 0
 6-311+G(2d,p)
 ****
 33  36  37 0
 6-311+G(2d,p)
 ****
 1  2  13  14  15  16  17  18  19  20  21  23  24  26 0
 3-21G
 ****
 27  28  34  35  38  39  40  41  42  43  44  45  46  47  48 0
 3-21G
 ****


