%nproc=1
%NoSave
%Mem=1900MB
#P OB98/GEN NMR

erre ene a

0 1
  C      988.363    -252.209    1160.584
  O      988.685    -252.791    1161.836
  H      987.507    -252.760    1160.160
  H      989.206    -252.305    1159.898
  H      988.084    -251.169    1160.705
  P      989.943    -252.142    1162.614
  C      988.591    -251.067    1164.564
  O      989.518    -252.078    1164.169
  C      987.892    -251.469    1165.865
  O      986.798    -252.387    1165.599
  C      988.804    -252.162    1166.871
  O      989.541    -251.211    1167.629
  C      987.790    -252.922    1167.738
  O      987.168    -252.050    1168.695
  C      986.772    -253.371    1166.669
  N      987.638    -258.207    1167.863
  C      987.379    -257.128    1168.672
  N      987.381    -257.353    1170.005
  N      987.129    -255.918    1168.235
  C      987.163    -255.839    1166.882
  C      987.404    -256.838    1165.952
  C      987.658    -258.171    1166.473
  O      987.826    -259.181    1165.808
  N      987.359    -256.369    1164.665
  C      987.118    -255.068    1164.809
  N      987.023    -254.700    1166.136
  O      989.896    -250.597    1162.160
  O      991.256    -252.765    1162.327
  H      987.838    -251.746    1169.311
  H      990.808    -250.247    1162.155
  H      987.810    -259.109    1168.278
  H      987.017    -254.367    1163.989
  H      985.754    -253.378    1167.072
  H      988.263    -253.730    1168.271
  H      987.896    -258.134    1170.402
  H      989.472    -252.884    1166.379
  H      987.216    -256.551    1170.620
  H      987.453    -250.558    1166.307
  H      987.827    -250.953    1163.779
  H      989.117    -250.126    1164.686
  P      991.077    -251.571    1167.986
  C      992.059    -250.938    1165.662
  O      992.008    -250.649    1167.063
  O      991.269    -253.042    1167.361
  O      991.393    -251.556    1169.448
  H      992.054    -253.459    1167.746
  H      992.716    -250.245    1165.179
  H      991.078    -250.851    1165.244
  H      992.421    -251.934    1165.516

 6  7  8  9  10  11  12  13  14  15  26  29  33  34 0
 6-311+G(2d,p)
 ****
 36  38  39  40  41 0
 6-311+G(2d,p)
 ****
 1  2  3  4  5  16  17  18  19  20  21  22  23  24  25 0
 3-21G
 ****
 27  28  30  31  32  35  37  42  43  44  45  46  47 0
 3-21G
 ****
 48  49 0
 3-21G
 ****


