%nproc=1
%NoSave
%Mem=1900MB
#P OB98/GEN NMR

erre ene a

0 1
  C     -184.735     -90.144     -92.681
  O     -183.372     -89.931     -92.980
  H     -185.011     -91.149     -93.009
  H     -185.348     -89.417     -93.224
  H     -184.925     -90.060     -91.609
  P     -182.615     -88.695     -92.296
  C     -183.713     -86.848     -93.734
  O     -183.576     -87.414     -92.436
  C     -183.434     -85.340     -93.709
  O     -183.776     -84.768     -94.996
  C     -184.315     -84.650     -92.669
  O     -183.708     -83.474     -92.140
  C     -185.546     -84.256     -93.468
  O     -186.289     -83.197     -92.872
  C     -184.913     -83.900     -94.817
  N     -188.445     -81.692     -97.749
  C     -187.847     -81.217     -96.602
  N     -188.259     -80.004     -96.161
  N     -186.939     -81.879     -95.932
  C     -186.679     -83.111     -96.443
  C     -187.226     -83.696     -97.563
  C     -188.202     -82.937     -98.316
  O     -188.778     -83.315     -99.333
  N     -186.729     -84.963     -97.756
  C     -185.889     -85.143     -96.760
  N     -185.813     -84.041     -95.940
  O     -181.434     -88.358     -93.324
  O     -182.089     -88.942     -90.916
  H     -187.109     -83.084     -93.390
  H     -180.699     -87.911     -92.864
  H     -189.131     -81.131     -98.235
  H     -185.310     -86.045     -96.587
  H     -184.552     -82.862     -94.808
  H     -186.215     -85.124     -93.528
  H     -189.069     -79.541     -96.538
  H     -184.574     -85.318     -91.840
  H     -188.051     -79.779     -95.185
  H     -182.366     -85.156     -93.552
  H     -184.742     -87.035     -94.062
  H     -183.045     -87.354     -94.437
  P     -182.791     -83.631     -90.833
  C     -184.489     -82.760     -89.035
  O     -183.762     -83.846     -89.572
  O     -182.184     -82.170     -90.618
  O     -181.722     -84.670     -90.970
  H     -181.246     -82.149     -90.888
  H     -185.075     -83.098     -88.206
  H     -185.134     -82.356     -89.787
  H     -183.808     -82.003     -88.705

 6  7  8  9  10  11  12  13  14  15  26  29  33  34 0
 6-311+G(2d,p)
 ****
 36  38  39  40  41 0
 6-311+G(2d,p)
 ****
 1  2  3  4  5  16  17  18  19  20  21  22  23  24  25 0
 3-21G
 ****
 27  28  30  31  32  35  37  42  43  44  45  46  47 0
 3-21G
 ****
 48  49 0
 3-21G
 ****


