%nproc=1
%NoSave
%Mem=1900MB
#P OB98/GEN NMR

erre ene a

0 1
  C       55.292    -722.257    -141.180
  O       55.536    -721.440    -140.055
  H       56.217    -722.355    -141.752
  H       54.533    -721.800    -141.827
  H       54.959    -723.249    -140.860
  P       54.288    -721.130    -139.101
  C       55.549    -722.417    -137.266
  O       54.334    -722.290    -137.992
  C       55.424    -723.510    -136.187
  O       54.503    -723.038    -135.172
  C       54.899    -724.834    -136.728
  O       55.558    -725.910    -136.070
  C       53.434    -724.824    -136.327
  O       52.894    -726.142    -136.201
  C       53.469    -724.037    -135.022
  N       49.450    -724.089    -131.875
  C       50.636    -724.750    -131.842
  N       51.658    -724.646    -132.725
  C       51.383    -723.756    -133.675
  C       50.230    -723.025    -133.853
  C       49.217    -723.215    -132.888
  N       48.005    -722.582    -132.925
  N       50.315    -722.218    -134.991
  C       51.514    -722.469    -135.480
  N       52.188    -723.393    -134.736
  O       52.971    -720.965    -139.796
  O       54.800    -719.851    -138.286
  H       53.049    -726.626    -137.033
  H       55.720    -719.959    -137.999
  H       50.782    -725.428    -131.017
  H       51.935    -722.017    -136.371
  H       53.722    -724.659    -134.149
  H       52.836    -724.287    -137.089
  H       55.023    -724.934    -137.810
  H       56.410    -723.630    -135.699
  H       55.817    -721.459    -136.790
  H       47.338    -722.779    -132.185
  H       47.821    -721.911    -133.665
  H       56.336    -722.680    -137.983
  P       55.862    -727.246    -136.916
  C       58.373    -726.639    -136.970
  O       57.238    -727.047    -137.728
  O       54.721    -727.790    -137.709
  O       56.293    -728.289    -135.767
  H       55.948    -729.172    -135.975
  H       59.219    -726.542    -137.618
  H       58.582    -727.371    -136.218
  H       58.171    -725.697    -136.504

 6  7  8  9  10  11  12  13  14  15  25  28  32  33  34  35 0
 6-311+G(2d,p)
 ****
 36  39  40 0
 6-311+G(2d,p)
 ****
 1  2  3  4  5  16  17  18  19  20  21  22  23  24 0
 3-21G
 ****
 26  27  29  30  31  37  38  41  42  43  44  45  46  47 0
 3-21G
 ****
 48 0
 3-21G
 ****


