%nproc=1
%NoSave
%Mem=1900MB
#P OB98/GEN NMR

erre ene a

0 1
  C      -10.450      32.984     191.830
  O      -10.033      32.645     193.138
  H      -11.348      32.412     191.587
  H       -9.666      32.728     191.112
  H      -10.683      34.051     191.762
  P       -8.870      33.533     193.793
  C       -7.414      31.431     194.275
  O       -8.076      32.570     194.806
  C       -6.777      30.622     195.404
  O       -7.818      29.856     196.074
  C       -5.709      29.625     194.934
  O       -4.672      29.568     195.925
  C       -6.455      28.304     194.914
  O       -5.611      27.163     195.021
  C       -7.383      28.482     196.120
  N       -8.526      27.569     196.090
  C       -8.376      26.336     196.721
  O       -7.389      25.997     197.375
  N       -9.431      25.469     196.581
  C      -10.574      25.698     195.871
  O      -11.473      24.873     195.765
  C      -10.669      27.011     195.220
  C       -9.655      27.871     195.354
  O       -9.674      34.515     194.769
  O       -8.002      34.269     192.826
  H       -9.931      35.329     194.297
  H       -5.066      27.125     194.208
  H       -9.338      24.572     197.032
  H      -11.559      27.226     194.637
  H       -9.684      28.843     194.867
  H       -6.829      28.345     197.056
  H       -7.031      28.214     193.989
  H       -5.270      29.864     193.958
  H       -6.361      31.318     196.146
  H       -6.632      31.755     193.580
  H       -8.141      30.816     193.728
  P       -3.288      30.314     195.593
  C       -1.455      28.643     196.444
  O       -2.246      29.797     196.697
  O       -3.634      31.809     196.036
  O       -2.867      30.151     194.169
  H       -4.221      31.854     196.810
  H       -0.824      28.451     197.287
  H       -0.851      28.808     195.576
  H       -2.095      27.801     196.279

 6  7  8  9  10  11  12  13  14  15  16  27  31  32  33  34  35 0
 6-311+G(2d,p)
 ****
 36  37 0
 6-311+G(2d,p)
 ****
 1  2  3  4  5  17  18  19  20  21  22  23  24  25 0
 3-21G
 ****
 26  28  29  30  38  39  40  41  42  43  44  45 0
 3-21G
 ****


