%nproc=1
%NoSave
%Mem=1900MB
#P OB98/GEN NMR

erre ene a

0 1
  C      886.385      27.028     101.521
  O      886.274      28.122     100.606
  P      886.304      29.608     101.218
  C      887.537      30.219     103.448
  O      887.611      29.660     102.142
  C      888.941      30.411     104.021
  O      889.602      29.124     104.192
  C      889.870      31.219     103.133
  O      889.558      32.606     103.183
  C      891.230      30.853     103.718
  O      891.487      31.616     104.908
  C      891.023      29.366     104.089
  N      891.649      28.450     103.144
  C      893.044      28.480     103.104
  O      893.723      29.236     103.801
  N      893.635      27.616     102.226
  C      892.986      26.764     101.374
  O      893.579      26.005     100.615
  C      891.518      26.814     101.422
  C      890.921      27.642     102.288
  O      885.086      29.539     102.251
  O      886.196      30.671     100.175
  H      884.994      28.663     102.676
  H      891.358      32.557     104.667
  H      894.648      27.613     102.193
  H      890.965      26.174     100.740
  H      889.839      27.692     102.343
  H      891.437      29.163     105.088
  H      892.052      31.037     103.026
  H      889.806      30.865     102.093
  H      888.848      30.883     105.006
  H      886.965      29.559     104.111
  H      887.002      31.175     103.393
  P      888.676      33.194     101.972
  C      886.133      33.735     101.720
  O      887.228      33.512     102.579
  O      888.452      31.879     101.088
  O      889.339      34.324     101.245
  H      888.221      31.101     101.619
  H      885.206      33.587     102.279
  H      886.140      33.054     100.865
  H      886.160      34.772     101.352
  H      886.351      26.106     100.980
  H      885.574      27.063     102.218
  H      887.313      27.097     102.049

 3  4  5  6  7  8  9  10  11  12  13  24  28  29  30  31  32 0
 6-311+G(2d,p)
 ****
 33  34 0
 6-311+G(2d,p)
 ****
 1  2  14  15  16  17  18  19  20  21  22  23  25  26  27 0
 3-21G
 ****
 35  36  37  38  39  40  41  42  43  44  45 0
 3-21G
 ****


