%nproc=1
%NoSave
%Mem=1900MB
#P OB98/GEN NMR

erre ene a

0 1
  C     -280.378      76.612    -351.557
  O     -281.328      75.829    -352.251
  H     -279.687      75.941    -351.039
  H     -280.870      77.250    -350.821
  H     -279.806      77.225    -352.261
  P     -282.528      76.579    -353.009
  C     -281.827      75.184    -355.070
  O     -282.901      75.680    -354.281
  C     -282.183      73.818    -355.679
  O     -282.304      72.841    -354.601
  C     -283.514      73.811    -356.455
  O     -283.400      72.827    -357.488
  C     -284.481      73.353    -355.378
  O     -285.713      72.957    -355.933
  C     -283.638      72.282    -354.681
  N     -284.157      71.925    -353.372
  C     -285.054      70.850    -353.335
  O     -285.381      70.282    -354.372
  N     -285.593      70.483    -352.128
  C     -285.309      71.169    -351.059
  N     -285.885      70.751    -349.896
  C     -284.407      72.339    -351.067
  C     -283.871      72.658    -352.244
  O     -282.307      78.024    -353.304
  O     -283.784      76.368    -352.038
  H     -286.201      73.732    -356.294
  H     -283.979      77.195    -351.564
  H     -284.220      72.878    -350.152
  H     -283.198      73.504    -352.346
  H     -283.576      71.370    -355.293
  H     -284.701      74.175    -354.685
  H     -283.763      74.788    -356.882
  H     -281.354      73.484    -356.317
  H     -286.500      69.952    -349.942
  H     -280.957      75.085    -354.417
  H     -285.750      71.215    -349.013
  H     -281.590      75.893    -355.874
  P     -282.787      73.147    -358.934
  C     -281.398      71.068    -359.571
  O     -282.613      71.778    -359.754
  O     -281.557      73.991    -358.899
  O     -283.968      73.903    -359.720
  H     -283.570      74.533    -360.352
  H     -281.410      70.181    -360.169
  H     -281.293      70.801    -358.540
  H     -280.576      71.686    -359.865

 6  7  8  9  10  11  12  13  14  15  16  26  30  31  32  33  35 0
 6-311+G(2d,p)
 ****
 37  38 0
 6-311+G(2d,p)
 ****
 1  2  3  4  5  17  18  19  20  21  22  23  24  25 0
 3-21G
 ****
 27  28  29  34  36  39  40  41  42  43  44  45  46 0
 3-21G
 ****


