%nproc=1
%NoSave
%Mem=1900MB
#P OB98/GEN NMR

erre ene a

0 1
  C      294.907    -420.695    -580.080
  O      296.171    -420.054    -580.156
  P      296.394    -418.747    -579.245
  C      298.858    -419.561    -579.260
  O      297.973    -418.454    -579.228
  C      300.275    -419.120    -579.643
  O      300.248    -418.581    -580.996
  C      300.874    -418.034    -578.731
  O      302.275    -418.290    -578.648
  C      300.589    -416.767    -579.518
  O      301.361    -415.648    -579.108
  C      300.847    -417.269    -580.936
  N      300.879    -412.534    -582.885
  C      301.615    -413.112    -581.909
  N      301.555    -414.379    -581.446
  C      300.625    -415.078    -582.116
  C      299.782    -414.625    -583.115
  C      299.935    -413.285    -583.505
  N      299.173    -412.693    -584.494
  N      298.934    -415.628    -583.543
  C      299.257    -416.671    -582.805
  N      300.281    -416.401    -581.944
  O      296.102    -419.280    -577.766
  O      295.532    -417.574    -579.600
  H      301.354    -415.577    -578.133
  H      295.625    -418.613    -577.238
  H      302.352    -412.469    -581.425
  H      298.769    -417.639    -582.850
  H      301.916    -417.374    -581.148
  H      299.542    -416.489    -579.388
  H      300.446    -418.035    -577.722
  H      300.923    -420.007    -579.658
  H      298.515    -420.281    -580.009
  H      299.218    -411.689    -584.558
  H      298.350    -413.197    -584.800
  H      298.858    -420.063    -578.284
  P      303.059    -417.895    -577.300
  C      304.117    -420.242    -577.344
  O      304.361    -418.844    -577.311
  O      302.151    -418.616    -576.192
  O      303.278    -416.440    -577.076
  H      301.980    -419.548    -576.413
  H      305.081    -420.754    -577.455
  H      303.481    -420.495    -578.197
  H      303.648    -420.560    -576.411
  H      294.897    -421.543    -580.732
  H      294.141    -420.009    -580.376
  H      294.730    -421.016    -579.075

 3  4  5  6  7  8  9  10  11  12  22  25  29  30  31  32 0
 6-311+G(2d,p)
 ****
 33  36  37 0
 6-311+G(2d,p)
 ****
 1  2  13  14  15  16  17  18  19  20  21  23  24  26 0
 3-21G
 ****
 27  28  34  35  38  39  40  41  42  43  44  45  46  47  48 0
 3-21G
 ****


