%nproc=1
%NoSave
%Mem=1900MB
#P OB98/GEN NMR

erre ene a

0 1
  C     -241.244     112.668      87.796
  O     -241.601     111.582      88.628
  H     -241.570     112.450      86.772
  H     -240.158     112.795      87.796
  H     -241.733     113.586      88.134
  P     -241.373     111.775      90.206
  C     -238.994     110.665      90.154
  O     -239.780     111.813      90.409
  C     -237.500     110.995      90.273
  O     -237.195     111.241      91.671
  C     -236.580     109.870      89.784
  O     -235.431     110.465      89.172
  C     -236.169     109.175      91.067
  O     -234.946     108.458      90.920
  C     -236.122     110.356      92.053
  N     -236.243     109.928      93.445
  C     -235.070     109.495      94.073
  O     -234.001     109.482      93.453
  N     -235.136     109.058      95.371
  C     -236.279     108.993      95.972
  N     -236.282     108.529      97.248
  C     -237.549     109.392      95.330
  C     -237.459     109.856      94.083
  O     -241.796     110.344      90.778
  O     -242.119     112.925      90.798
  H     -234.802     107.917      91.730
  H     -241.441     109.601      90.263
  H     -238.484     109.309      95.869
  H     -238.337     110.176      93.545
  H     -235.177     110.909      91.943
  H     -236.940     108.458      91.375
  H     -237.076     109.196      89.074
  H     -237.308     111.926      89.733
  H     -235.393     108.240      97.641
  H     -239.201     110.280      89.151
  H     -237.122     108.379      97.792
  H     -239.272     109.892      90.876
  P     -235.398     110.675      87.591
  C     -234.589     108.249      87.212
  O     -235.538     109.249      86.864
  O     -234.308     111.551      87.070
  O     -236.837     111.346      87.297
  H     -236.704     112.048      86.630
  H     -234.794     107.355      86.660
  H     -234.655     108.044      88.260
  H     -233.604     108.595      86.977

 6  7  8  9  10  11  12  13  14  15  16  26  30  31  32  33  35 0
 6-311+G(2d,p)
 ****
 37  38 0
 6-311+G(2d,p)
 ****
 1  2  3  4  5  17  18  19  20  21  22  23  24  25 0
 3-21G
 ****
 27  28  29  34  36  39  40  41  42  43  44  45  46 0
 3-21G
 ****


