%nproc=1
%NoSave
%Mem=1900MB
#P OB98/GEN NMR

erre ene a

0 1
  C      430.384    -434.248    -588.333
  O      431.273    -434.492    -587.260
  H      430.938    -433.789    -589.154
  H      429.600    -433.563    -588.014
  H      429.942    -435.179    -588.695
  P      430.796    -435.424    -586.050
  C      432.394    -437.425    -586.405
  O      432.078    -436.286    -585.612
  C      433.831    -437.881    -586.163
  O      434.729    -437.056    -586.966
  C      434.293    -437.761    -584.698
  O      435.236    -438.795    -584.457
  C      434.970    -436.404    -584.700
  O      435.810    -436.244    -583.576
  C      435.672    -436.431    -586.065
  N      436.082    -435.104    -586.517
  C      437.329    -434.653    -586.115
  O      438.076    -435.319    -585.365
  N      437.692    -433.405    -586.529
  C      436.919    -432.546    -587.259
  O      437.279    -431.432    -587.578
  C      435.574    -433.060    -587.635
  C      435.227    -434.305    -587.253
  O      429.559    -436.224    -586.293
  O      430.620    -434.410    -584.816
  H      436.150    -435.318    -583.534
  H      429.927    -434.736    -584.216
  H      438.596    -433.073    -586.238
  H      434.930    -432.402    -588.202
  H      434.245    -434.689    -587.505
  H      436.567    -437.063    -586.025
  H      434.229    -435.593    -584.659
  H      433.462    -437.825    -583.981
  H      433.934    -438.910    -586.520
  H      432.257    -437.136    -587.455
  H      431.695    -438.244    -586.170
  P      435.762    -439.167    -582.980
  C      435.211    -441.687    -583.207
  O      436.226    -440.708    -582.969
  O      434.786    -438.821    -581.885
  O      437.132    -438.362    -582.809
  H      437.272    -438.162    -581.856
  H      435.644    -442.665    -583.174
  H      434.775    -441.522    -584.170
  H      434.454    -441.606    -582.455

 6  7  8  9  10  11  12  13  14  15  16  26  31  32  33  34  35 0
 6-311+G(2d,p)
 ****
 36  37 0
 6-311+G(2d,p)
 ****
 1  2  3  4  5  17  18  19  20  21  22  23  24  25 0
 3-21G
 ****
 27  28  29  30  38  39  40  41  42  43  44  45 0
 3-21G
 ****


