%nproc=1
%NoSave
%Mem=1900MB
#P OB98/GEN NMR

erre ene a

0 1
  C     1110.465     710.460    -280.132
  O     1110.911     710.808    -278.833
  H     1109.873     711.285    -280.535
  H     1109.842     709.559    -280.098
  H     1111.326     710.294    -280.795
  P     1111.710     709.712    -277.987
  C     1112.919     711.283    -276.317
  O     1111.849     710.374    -276.517
  C     1112.566     712.274    -275.207
  O     1111.562     713.220    -275.663
  C     1111.976     711.630    -273.948
  O     1112.936     710.969    -273.150
  C     1111.426     712.887    -273.264
  O     1112.498     713.625    -272.670
  C     1110.835     713.665    -274.480
  N     1109.391     713.411    -274.664
  C     1108.565     714.541    -274.662
  O     1109.029     715.670    -274.513
  N     1107.207     714.368    -274.811
  C     1106.727     713.160    -274.911
  N     1105.352     713.041    -274.985
  C     1107.563     711.945    -274.932
  C     1108.881     712.131    -274.802
  O     1112.980     709.200    -278.586
  O     1110.628     708.552    -277.705
  H     1112.131     714.422    -272.268
  H     1111.077     707.839    -277.179
  H     1107.109     710.972    -275.019
  H     1109.550     711.303    -274.793
  H     1111.004     714.739    -274.372
  H     1110.692     712.667    -272.468
  H     1111.137     710.984    -274.206
  H     1113.475     712.850    -274.979
  H     1104.816     713.889    -274.933
  H     1113.114     711.800    -277.261
  H     1104.914     712.158    -274.800
  H     1113.818     710.742    -276.007
  P     1112.845     709.351    -273.070
  C     1115.407     709.502    -273.466
  O     1114.333     708.835    -272.813
  O     1112.540     708.938    -274.579
  O     1111.845     708.821    -272.073
  H     1111.566     708.844    -274.717
  H     1116.333     709.040    -273.193
  H     1115.421     710.530    -273.171
  H     1115.275     709.437    -274.526

 6  7  8  9  10  11  12  13  14  15  16  26  30  31  32  33  35 0
 6-311+G(2d,p)
 ****
 37  38 0
 6-311+G(2d,p)
 ****
 1  2  3  4  5  17  18  19  20  21  22  23  24  25 0
 3-21G
 ****
 27  28  29  34  36  39  40  41  42  43  44  45  46 0
 3-21G
 ****


