%nproc=1
%NoSave
%Mem=1900MB
#P OB98/GEN NMR

erre ene a

0 1
  C      110.229    -158.972     -71.202
  O      110.768    -159.912     -70.289
  P      112.342    -159.976     -70.013
  C      112.830    -161.772     -71.772
  O      113.056    -160.423     -71.379
  C      114.143    -162.478     -72.117
  O      114.687    -161.894     -73.334
  C      115.230    -162.378     -71.038
  O      115.972    -163.606     -71.080
  C      116.101    -161.237     -71.539
  O      117.410    -161.255     -70.981
  C      116.047    -161.498     -73.039
  N      119.723    -159.222     -75.773
  C      119.709    -160.377     -75.073
  N      118.699    -160.902     -74.348
  C      117.617    -160.104     -74.397
  C      117.493    -158.882     -75.041
  C      118.609    -158.448     -75.774
  N      118.632    -157.292     -76.525
  N      116.240    -158.340     -74.808
  C      115.627    -159.214     -74.039
  N      116.395    -160.325     -73.819
  O      112.747    -160.765     -68.811
  O      112.772    -158.438     -69.865
  H      117.857    -162.074     -71.273
  H      112.945    -158.233     -68.926
  H      120.627    -160.960     -75.100
  H      114.641    -159.096     -73.613
  H      116.712    -162.314     -73.343
  H      115.636    -160.276     -71.281
  H      114.838    -162.197     -70.031
  H      113.916    -163.529     -72.339
  H      112.183    -161.762     -72.657
  H      119.436    -157.142     -77.119
  H      117.750    -156.841     -76.759
  H      112.314    -162.310     -70.970
  P      115.805    -164.683     -69.906
  C      118.142    -164.373     -68.904
  O      116.752    -164.198     -68.705
  O      115.974    -166.108     -70.319
  O      114.330    -164.399     -69.344
  H      114.025    -165.167     -68.824
  H      118.412    -165.408     -68.688
  H      118.685    -163.715     -68.224
  H      118.427    -164.133     -69.933
  H      109.166    -159.087     -71.247
  H      110.647    -159.138     -72.173
  H      110.467    -157.981     -70.876

 3  4  5  6  7  8  9  10  11  12  22  25  29  30  31  32 0
 6-311+G(2d,p)
 ****
 33  36  37 0
 6-311+G(2d,p)
 ****
 1  2  13  14  15  16  17  18  19  20  21  23  24  26 0
 3-21G
 ****
 27  28  34  35  38  39  40  41  42  43  44  45  46  47  48 0
 3-21G
 ****


