%nproc=1
%NoSave
%Mem=1900MB
#P OB98/GEN NMR

erre ene a

0 1
  C      131.162      26.093      37.572
  O      131.082      26.695      36.288
  P      130.131      25.996      35.197
  C      128.762      26.869      33.170
  O      129.506      27.198      34.338
  C      127.461      27.663      33.122
  O      126.701      27.445      34.327
  C      127.642      29.170      33.018
  O      127.886      29.591      31.687
  C      126.281      29.657      33.487
  O      125.325      29.541      32.417
  C      125.951      28.658      34.602
  N      125.443      32.564      37.860
  C      125.050      32.404      36.580
  N      125.232      31.337      35.775
  C      125.933      30.380      36.406
  C      126.433      30.418      37.697
  C      126.155      31.571      38.447
  N      126.531      31.720      39.762
  N      127.102      29.250      37.991
  C      127.000      28.516      36.905
  N      126.294      29.151      35.922
  O      128.892      25.487      36.074
  O      130.764      24.892      34.422
  H      125.664      30.076      31.675
  H      128.440      24.752      35.617
  H      124.508      33.241      36.147
  H      127.410      27.522      36.788
  H      124.889      28.386      34.617
  H      126.288      30.706      33.796
  H      128.417      29.526      33.709
  H      126.868      27.288      32.277
  H      128.529      25.801      33.184
  H      126.137      32.488      40.282
  H      126.880      30.904      40.252
  H      129.373      27.084      32.287
  P      128.420      31.093      31.489
  C      129.711      32.257      29.558
  O      129.353      31.042      30.188
  O      129.449      31.274      32.699
  O      127.346      32.128      31.494
  H      129.536      32.217      32.935
  H      130.572      32.074      28.908
  H      129.985      33.018      30.294
  H      128.879      32.616      28.948
  H      131.826      26.660      38.191
  H      131.531      25.093      37.475
  H      130.189      26.072      38.017

 3  4  5  6  7  8  9  10  11  12  22  25  29  30  31  32 0
 6-311+G(2d,p)
 ****
 33  36  37 0
 6-311+G(2d,p)
 ****
 1  2  13  14  15  16  17  18  19  20  21  23  24  26 0
 3-21G
 ****
 27  28  34  35  38  39  40  41  42  43  44  45  46  47  48 0
 3-21G
 ****


