%nproc=1
%NoSave
%Mem=1900MB
#P OB98/GEN NMR

erre ene a

0 1
  C      372.472     365.581    -899.120
  O      371.774     366.067    -898.000
  H      372.829     364.572    -898.910
  H      373.344     366.222    -899.330
  H      371.813     365.545    -900.000
  P      371.009     367.474    -898.170
  C      369.051     368.506    -896.740
  O      370.238     367.727    -896.780
  C      368.355     368.334    -895.390
  O      368.021     366.916    -895.200
  C      369.179     368.784    -894.190
  O      368.309     369.356    -893.210
  C      369.755     367.478    -893.650
  O      370.120     367.579    -892.280
  C      368.604     366.507    -893.950
  N      369.034     365.105    -894.000
  C      369.265     364.462    -892.770
  O      369.081     365.082    -891.710
  N      369.708     363.159    -892.770
  C      369.971     362.578    -893.900
  N      370.438     361.291    -893.830
  C      369.804     363.240    -895.210
  C      369.328     364.466    -895.190
  O      369.834     367.094    -899.200
  O      371.895     368.596    -898.630
  H      370.817     368.257    -892.180
  H      369.387     366.252    -898.970
  H      370.059     362.697    -896.140
  H      369.150     365.018    -896.120
  H      367.817     366.587    -893.180
  H      370.664     367.179    -894.230
  H      369.968     369.500    -894.470
  H      367.391     368.878    -895.420
  H      370.561     360.893    -892.910
  H      368.362     368.192    -897.550
  H      370.739     360.768    -894.630
  H      369.318     369.559    -896.910
  P      367.738     370.834    -893.460
  C      365.331     371.809    -893.260
  O      366.346     370.991    -892.670
  O      367.734     371.321    -894.860
  O      368.713     371.752    -892.560
  H      368.904     372.581    -893.070
  H      364.469     371.820    -892.627
  H      365.065     371.413    -894.218
  H      365.700     372.807    -893.377

 6  7  8  9  10  11  12  13  14  15  16  26  30  31  32  33  35 0
 6-311+G(2d,p)
 ****
 37  38 0
 6-311+G(2d,p)
 ****
 1  2  3  4  5  17  18  19  20  21  22  23  24  25 0
 3-21G
 ****
 27  28  29  34  36  39  40  41  42  43  44  45  46 0
 3-21G
 ****


