%nproc=1
%NoSave
%Mem=1900MB
#P OB98/GEN NMR

erre ene a

0 1
  C      258.549     305.957     -37.740
  O      258.789     305.687     -39.108
  H      258.636     307.035     -37.575
  H      259.296     305.443     -37.122
  H      257.543     305.634     -37.456
  P      258.543     304.182     -39.601
  C      261.068     303.595     -39.181
  O      259.703     303.272     -38.957
  C      261.962     302.756     -38.271
  O      261.686     303.014     -36.880
  C      261.747     301.258     -38.411
  O      262.238     300.744     -39.624
  C      262.486     300.754     -37.177
  O      263.903     300.726     -37.404
  C      262.120     301.842     -36.137
  N      261.099     301.394     -35.196
  C      261.397     300.217     -34.490
  O      262.468     299.638     -34.677
  N      260.462     299.716     -33.621
  C      259.341     300.346     -33.448
  N      258.449     299.797     -32.578
  C      258.994     301.598     -34.152
  C      259.910     302.057     -35.002
  O      258.962     304.248     -41.143
  O      257.170     303.645     -39.354
  H      264.319     300.668     -36.523
  H      259.852     304.612     -41.292
  H      258.050     302.094     -33.967
  H      259.737     302.971     -35.556
  H      263.004     302.140     -35.563
  H      262.186     299.738     -36.903
  H      260.680     301.016     -38.284
  H      263.006     303.031     -38.467
  H      258.711     298.923     -32.136
  H      261.249     304.665     -39.018
  H      257.533     300.176     -32.392
  H      261.293     303.382     -40.229
  P      261.379     299.692     -40.477
  C      262.597     297.561     -39.701
  O      261.398     298.315     -39.642
  O      261.775     299.549     -41.904
  O      259.871     300.193     -40.266
  H      259.569     300.210     -39.340
  H      262.490     296.674     -39.112
  H      263.406     298.148     -39.319
  H      262.799     297.292     -40.717

 6  7  8  9  10  11  12  13  14  15  16  26  30  31  32  33  35 0
 6-311+G(2d,p)
 ****
 37  38 0
 6-311+G(2d,p)
 ****
 1  2  3  4  5  17  18  19  20  21  22  23  24  25 0
 3-21G
 ****
 27  28  29  34  36  39  40  41  42  43  44  45  46 0
 3-21G
 ****


