%nproc=1
%NoSave
%Mem=1900MB
#P OB98/GEN NMR

erre ene a

0 1
  C     -267.384     315.320      92.734
  O     -268.509     315.915      92.082
  P     -268.194     317.066      91.005
  C     -266.960     319.360      91.081
  O     -267.606     318.327      91.813
  C     -266.450     320.453      92.022
  O     -267.539     321.257      92.520
  C     -265.743     319.930      93.267
  O     -264.398     319.552      92.986
  C     -265.785     321.159      94.165
  O     -264.702     322.048      93.824
  C     -267.134     321.795      93.807
  N     -268.913     322.773      98.456
  C     -267.796     323.269      97.807
  N     -267.062     324.178      98.493
  N     -267.431     322.911      96.607
  C     -268.274     322.021      96.030
  C     -269.409     321.451      96.567
  C     -269.783     321.832      97.916
  O     -270.746     321.394      98.544
  N     -270.009     320.587      95.681
  C     -269.255     320.661      94.598
  N     -268.183     321.505      94.767
  O     -269.651     317.558      90.569
  O     -267.385     316.607      89.839
  H     -264.771     322.223      92.867
  H     -269.625     317.927      89.664
  H     -269.141     323.077      99.386
  H     -269.444     320.128      93.673
  H     -267.061     322.882      93.692
  H     -265.670     320.911      95.223
  H     -267.328     324.553      99.392
  H     -266.314     319.114      93.724
  H     -266.263     324.580      98.022
  H     -265.772     321.104      91.450
  H     -267.654     319.798      90.357
  H     -266.135     318.926      90.504
  P     -264.002     318.018      93.250
  C     -263.849     316.552      95.386
  O     -263.989     317.848      94.844
  O     -262.454     317.971      92.839
  O     -264.821     317.028      92.485
  H     -262.216     317.079      92.529
  H     -263.087     315.976      94.850
  H     -264.811     316.024      95.334
  H     -263.552     316.636      96.438
  H     -267.724     314.574      93.422
  H     -266.840     316.073      93.265
  H     -266.747     314.867      92.003

 3  4  5  6  7  8  9  10  11  12  23  26  30  31  33  0
 6-311+G(2d,p)
 ****
 35  36  37  38 0
 6-311+G(2d,p)
 ****
 1  2  13  14  15  16  17  18  19  20  21  22  24  25  27  28  29 0
 3-21G
 ****
 32  34  39  40  41  42  43  44  45  46  47  48  49 0
 3-21G
 ****


