%nproc=1
%NoSave
%Mem=1900MB
#P OB98/GEN NMR

erre ene a

0 1
  C     -758.953      47.320    -896.210
  O     -760.079      48.058    -895.800
  H     -758.709      47.589    -897.250
  H     -759.155      46.245    -896.180
  H     -758.085      47.557    -895.590
  P     -760.608      47.777    -894.310
  C     -763.065      47.208    -894.930
  O     -761.793      46.705    -894.500
  C     -764.016      46.045    -895.190
  O     -763.556      45.277    -896.320
  C     -764.165      45.071    -894.040
  O     -765.121      45.551    -893.100
  C     -764.681      43.830    -894.780
  O     -766.108      43.965    -895.000
  C     -763.929      43.888    -896.120
  N     -761.306      40.538    -898.990
  C     -762.559      41.052    -899.130
  N     -763.202      41.908    -898.290
  C     -762.441      42.216    -897.240
  C     -761.144      41.781    -896.970
  C     -760.579      40.904    -897.900
  N     -759.308      40.372    -897.770
  N     -760.685      42.308    -895.790
  C     -761.644      43.103    -895.390
  N     -762.750      43.066    -896.210
  O     -760.936      48.986    -893.500
  O     -759.416      46.874    -893.730
  H     -766.502      44.221    -894.140
  H     -759.109      46.242    -894.410
  H     -763.103      40.752    -900.000
  H     -761.593      43.757    -894.510
  H     -764.580      43.604    -896.960
  H     -764.548      42.912    -894.210
  H     -763.201      44.823    -893.580
  H     -765.003      46.484    -895.470
  H     -762.947      47.813    -895.830
  H     -759.066      39.621    -898.380
  H     -758.829      40.535    -896.900
  H     -763.454      47.842    -894.130
  P     -765.354      44.786    -891.720
  C     -767.892      44.562    -892.140
  O     -766.650      43.882    -891.940
  O     -765.412      45.689    -890.510
  O     -764.150      43.722    -891.630
  H     -764.061      43.399    -890.710
  H     -768.674      43.844    -892.274
  H     -767.823      45.181    -893.010
  H     -768.108      45.169    -891.286

 6  7  8  9  10  11  12  13  14  15  25  28  32  33  34  35 0
 6-311+G(2d,p)
 ****
 36  39  40 0
 6-311+G(2d,p)
 ****
 1  2  3  4  5  16  17  18  19  20  21  22  23  24 0
 3-21G
 ****
 26  27  29  30  31  37  38  41  42  43  44  45  46  47 0
 3-21G
 ****
 48 0
 3-21G
 ****


