%nproc=1
%NoSave
%Mem=1900MB
#P OB98/GEN NMR

erre ene a

0 1
  C     -398.748    -500.897     104.961
  O     -397.558    -501.553     105.343
  H     -399.434    -501.635     104.534
  H     -398.544    -500.137     104.200
  H     -399.232    -500.438     105.829
  P     -396.382    -500.683     105.998
  C     -395.613    -498.304     105.310
  O     -396.029    -499.584     104.870
  C     -395.540    -497.341     104.125
  O     -396.651    -497.533     103.223
  C     -395.602    -495.862     104.495
  O     -394.407    -495.364     105.084
  C     -395.857    -495.263     103.125
  O     -394.649    -495.262     102.359
  C     -396.894    -496.258     102.553
  N     -398.274    -495.828     102.765
  C     -398.779    -494.869     101.883
  O     -398.067    -494.415     100.978
  N     -400.061    -494.409     102.050
  C     -400.775    -494.853     103.042
  N     -402.047    -494.362     103.169
  C     -400.292    -495.848     104.005
  C     -399.040    -496.292     103.816
  O     -395.215    -501.451     106.527
  O     -397.111    -499.781     107.103
  H     -394.142    -494.474     102.631
  H     -396.419    -499.229     107.547
  H     -400.914    -496.169     104.833
  H     -398.613    -497.024     104.489
  H     -396.730    -496.413     101.481
  H     -396.212    -494.225     103.168
  H     -396.465    -495.654     105.140
  H     -394.623    -497.578     103.566
  H     -402.351    -493.679     102.488
  H     -394.635    -498.408     105.793
  H     -402.646    -494.591     103.945
  H     -396.330    -497.911     106.030
  P     -394.543    -494.064     106.013
  C     -395.061    -491.554     105.521
  O     -394.639    -492.812     105.029
  O     -393.089    -493.940     106.674
  O     -395.627    -494.127     107.046
  H     -393.078    -494.319     107.574
  H     -395.063    -490.841     104.723
  H     -394.390    -491.228     106.288
  H     -396.048    -491.642     105.924

 6  7  8  9  10  11  12  13  14  15  16  26  30  31  32  33  35 0
 6-311+G(2d,p)
 ****
 37  38 0
 6-311+G(2d,p)
 ****
 1  2  3  4  5  17  18  19  20  21  22  23  24  25 0
 3-21G
 ****
 27  28  29  34  36  39  40  41  42  43  44  45  46 0
 3-21G
 ****


