%nproc=1
%NoSave
%Mem=1900MB
#P OB98/GEN NMR

erre ene a

0 1
  C      -76.163     -23.053    -239.067
  O      -76.453     -24.358    -239.530
  H      -76.957     -22.708    -238.399
  H      -75.223     -23.080    -238.512
  H      -76.057     -22.367    -239.908
  P      -77.819     -24.527    -240.356
  C      -76.527     -24.807    -242.583
  O      -77.503     -24.066    -241.866
  C      -76.606     -24.474    -244.072
  O      -77.895     -24.918    -244.571
  C      -76.470     -22.973    -244.387
  O      -75.490     -22.761    -245.411
  C      -77.829     -22.582    -244.932
  O      -77.760     -21.590    -245.947
  C      -78.370     -23.904    -245.461
  N      -82.383     -22.673    -248.357
  C      -81.089     -22.906    -248.672
  N      -80.089     -23.322    -247.873
  C      -80.543     -23.541    -246.625
  C      -81.834     -23.368    -246.155
  C      -82.778     -22.892    -247.082
  N      -84.082     -22.602    -246.747
  N      -81.918     -23.685    -244.811
  C      -80.683     -23.997    -244.459
  N      -79.820     -23.909    -245.524
  O      -78.743     -23.349    -239.786
  O      -78.472     -25.857    -240.208
  H      -78.670     -21.400    -246.235
  H      -79.537     -23.741    -239.379
  H      -80.819     -22.718    -249.713
  H      -80.357     -24.243    -243.458
  H      -77.985     -24.131    -246.464
  H      -78.445     -22.198    -244.113
  H      -76.206     -22.377    -243.503
  H      -75.837     -25.049    -244.596
  H      -76.708     -25.879    -242.446
  H      -84.660     -22.154    -247.441
  H      -84.354     -22.663    -245.775
  H      -75.534     -24.563    -242.185
  P      -74.319     -21.709    -245.068
  C      -72.189     -23.181    -244.796
  O      -73.232     -22.460    -244.143
  O      -75.029     -20.684    -244.066
  O      -73.765     -21.012    -246.262
  H      -74.960     -19.779    -244.413
  H      -71.548     -23.624    -244.062
  H      -71.621     -22.511    -245.408
  H      -72.615     -23.949    -245.408

 6  7  8  9  10  11  12  13  14  15  25  28  32  33  34  35 0
 6-311+G(2d,p)
 ****
 36  39  40 0
 6-311+G(2d,p)
 ****
 1  2  3  4  5  16  17  18  19  20  21  22  23  24 0
 3-21G
 ****
 26  27  29  30  31  37  38  41  42  43  44  45  46  47  48 0
 3-21G
 ****


