%nproc=1
%NoSave
%Mem=1900MB
#P OB98/GEN NMR

erre ene a

0 1
  C     -309.938     254.674    -364.801
  O     -310.881     255.723    -364.928
  H     -309.402     254.567    -365.748
  H     -310.451     253.734    -364.580
  H     -309.220     254.904    -364.012
  P     -311.757     256.057    -363.629
  C     -313.699     254.800    -362.456
  O     -312.908     254.936    -363.631
  C     -314.657     253.620    -362.597
  O     -315.692     253.908    -363.554
  C     -314.004     252.329    -363.080
  O     -313.352     251.661    -362.006
  C     -315.216     251.561    -363.573
  O     -315.902     250.966    -362.456
  C     -316.088     252.668    -364.193
  N     -318.603     253.746    -368.538
  C     -319.041     253.509    -367.282
  N     -318.321     253.188    -366.188
  C     -317.011     253.116    -366.475
  C     -316.418     253.325    -367.713
  C     -317.273     253.665    -368.778
  N     -316.821     253.917    -370.057
  N     -315.049     253.162    -367.637
  C     -314.818     252.906    -366.365
  N     -315.972     252.831    -365.632
  O     -312.213     257.471    -363.500
  O     -310.783     255.546    -362.463
  H     -316.162     251.685    -361.848
  H     -310.330     254.728    -362.731
  H     -320.114     253.593    -367.138
  H     -313.833     252.783    -365.924
  H     -317.155     252.514    -363.977
  H     -314.944     250.746    -364.248
  H     -313.327     252.520    -363.922
  H     -315.143     253.464    -361.624
  H     -314.266     255.716    -362.273
  H     -317.510     253.980    -370.787
  H     -315.852     253.738    -370.257
  H     -313.017     254.636    -361.617
  P     -312.264     250.518    -362.299
  C     -311.705     248.243    -361.230
  O     -312.709     249.235    -361.434
  O     -310.844     250.934    -362.104
  O     -312.551     250.059    -363.800
  H     -311.713     249.876    -364.269
  H     -312.108     247.442    -360.647
  H     -310.874     248.677    -360.714
  H     -311.379     247.866    -362.177

 6  7  8  9  10  11  12  13  14  15  25  28  32  33  34  35 0
 6-311+G(2d,p)
 ****
 36  39  40 0
 6-311+G(2d,p)
 ****
 1  2  3  4  5  16  17  18  19  20  21  22  23  24 0
 3-21G
 ****
 26  27  29  30  31  37  38  41  42  43  44  45  46  47 0
 3-21G
 ****
 48 0
 3-21G
 ****


