%nproc=1
%NoSave
%Mem=1900MB
#P OB98/GEN NMR

erre ene a

0 1
  C     -351.761      13.127      35.300
  O     -353.088      13.258      35.761
  H     -351.561      13.922      34.578
  H     -351.630      12.161      34.807
  H     -351.058      13.219      36.133
  P     -353.592      12.201      36.861
  C     -355.373      11.564      35.070
  O     -355.107      11.855      36.437
  C     -356.870      11.311      34.862
  O     -357.305      10.270      35.772
  C     -357.736      12.545      35.116
  O     -358.738      12.638      34.103
  C     -358.368      12.283      36.471
  O     -359.610      12.968      36.631
  C     -358.454      10.754      36.495
  N     -358.479      10.230      37.859
  C     -359.736      10.085      38.453
  O     -360.754      10.401      37.836
  N     -359.811       9.635      39.748
  C     -358.720       9.409      40.413
  N     -358.858       8.986      41.699
  C     -357.374       9.595      39.843
  C     -357.326       9.999      38.574
  O     -353.763      13.100      38.169
  O     -352.712      11.012      37.050
  H     -359.988      12.711      37.501
  H     -353.865      12.543      38.980
  H     -356.493       9.411      40.442
  H     -356.377      10.165      38.074
  H     -359.354      10.408      35.970
  H     -357.692      12.632      37.262
  H     -357.163      13.472      35.130
  H     -357.019      10.921      33.849
  H     -359.799       8.880      42.059
  H     -354.806      10.677      34.778
  H     -358.081       8.810      42.318
  H     -355.060      12.415      34.457
  P     -358.251      13.226      32.688
  C     -359.893      15.179      33.145
  O     -359.365      14.272      32.192
  O     -358.416      11.986      31.691
  O     -356.858      13.759      32.712
  H     -357.555      11.550      31.547
  H     -360.618      15.809      32.674
  H     -359.102      15.781      33.541
  H     -360.357      14.632      33.939

 6  7  8  9  10  11  12  13  14  15  16  26  30  31  32  33  35 0
 6-311+G(2d,p)
 ****
 37  38 0
 6-311+G(2d,p)
 ****
 1  2  3  4  5  17  18  19  20  21  22  23  24  25 0
 3-21G
 ****
 27  28  29  34  36  39  40  41  42  43  44  45  46 0
 3-21G
 ****


