%nproc=1
%NoSave
%Mem=1900MB
#P OB98/GEN NMR

erre ene a

0 1
  C      269.929    -149.475     -63.220
  O      270.350    -150.846     -63.181
  P      271.339    -151.297     -62.007
  C      269.893    -152.514     -60.220
  O      270.749    -152.632     -61.346
  C      270.284    -153.532     -59.144
  O      269.655    -153.237     -57.877
  C      269.889    -154.963     -59.482
  O      270.839    -155.585     -60.336
  C      269.927    -155.610     -58.105
  O      271.289    -155.924     -57.751
  C      269.384    -154.493     -57.207
  N      265.888    -155.844     -53.807
  C      267.267    -155.841     -53.714
  N      267.792    -156.253     -52.537
  N      268.059    -155.471     -54.686
  C      267.394    -155.067     -55.791
  C      266.035    -155.023     -56.006
  C      265.170    -155.453     -54.929
  O      263.943    -155.488     -54.960
  N      265.742    -154.562     -57.263
  C      266.919    -154.306     -57.803
  N      267.956    -154.613     -56.957
  O      271.072    -150.196     -60.873
  O      272.778    -151.346     -62.399
  H      271.819    -155.126     -57.949
  H      271.870    -150.087     -60.325
  H      265.326    -156.144     -53.028
  H      267.069    -153.903     -58.795
  H      269.879    -154.462     -56.231
  H      269.366    -156.548     -58.071
  H      267.240    -156.504     -51.734
  H      268.871    -155.007     -59.891
  H      268.799    -156.227     -52.441
  H      271.373    -153.484     -59.009
  H      268.852    -152.671     -60.517
  H      269.943    -151.490     -59.842
  P      270.287    -156.514     -61.521
  C      269.445    -154.741     -63.223
  O      270.457    -155.661     -62.866
  O      268.706    -156.520     -61.260
  O      270.849    -157.891     -61.545
  H      268.325    -157.368     -61.550
  H      269.797    -154.142     -64.066
  H      269.213    -154.076     -62.386
  H      268.540    -155.279     -63.527
  H      269.275    -149.326     -64.054
  H      270.786    -148.842     -63.321
  H      269.412    -149.235     -62.315

 3  4  5  6  7  8  9  10  11  12  23  26  30  31 0
 6-311+G(2d,p)
 ****
 33  35  36  37  38 0
 6-311+G(2d,p)
 ****
 1  2  13  14  15  16  17  18  19  20  21  22  24  25 0
 3-21G
 ****
 27  28  29  32  34  39  40  41  42  43  44  45  46  47  48  49 0
 3-21G
 ****


