%nproc=1
%NoSave
%Mem=1900MB
#P OB98/GEN NMR

erre ene a

0 1
  C      151.448     -44.685      71.357
  O      151.319     -43.695      70.355
  H      152.005     -45.531      70.945
  H      150.461     -45.034      71.677
  H      151.997     -44.281      72.212
  P      150.477     -42.385      70.741
  C      148.109     -43.372      70.465
  O      149.117     -42.957      71.382
  C      147.183     -44.398      71.120
  O      146.042     -44.612      70.245
  C      147.850     -45.760      71.353
  O      147.353     -46.322      72.570
  C      147.354     -46.592      70.178
  O      147.406     -47.993      70.448
  C      145.949     -46.025      69.993
  N      142.577     -48.728      67.291
  C      142.739     -48.551      68.620
  N      143.654     -47.793      69.258
  C      144.421     -47.125      68.368
  C      144.378     -47.205      66.988
  C      143.401     -48.062      66.442
  N      143.251     -48.277      65.093
  N      145.354     -46.407      66.426
  C      145.975     -45.850      67.453
  N      145.457     -46.273      68.649
  O      150.295     -41.389      69.645
  O      151.265     -41.853      72.028
  H      147.057     -48.472      69.670
  H      151.460     -42.578      72.655
  H      142.048     -49.101      69.258
  H      146.808     -45.159      67.383
  H      145.217     -46.459      70.690
  H      147.976     -46.398      69.298
  H      148.939     -45.706      71.386
  H      146.793     -43.979      72.054
  H      148.569     -43.806      69.574
  H      142.526     -48.910      64.789
  H      143.850     -47.788      64.443
  H      147.541     -42.480      70.167
  P      148.293     -46.321      73.871
  C      149.139     -48.758      73.742
  O      149.483     -47.381      73.641
  O      147.591     -46.437      75.181
  O      149.062     -44.917      73.752
  H      149.115     -44.506      74.639
  H      150.009     -49.357      73.570
  H      148.394     -48.994      73.011
  H      148.755     -48.959      74.720

 6  7  8  9  10  11  12  13  14  15  25  28  32  33  34  35 0
 6-311+G(2d,p)
 ****
 36  39  40 0
 6-311+G(2d,p)
 ****
 1  2  3  4  5  16  17  18  19  20  21  22  23  24 0
 3-21G
 ****
 26  27  29  30  31  37  38  41  42  43  44  45  46  47 0
 3-21G
 ****
 48 0
 3-21G
 ****


