%nproc=1
%NoSave
%Mem=1900MB
#P OB98/GEN NMR

erre ene a

0 1
  C      -41.350     252.340     306.764
  O      -40.668     253.517     307.165
  P      -39.489     253.344     308.245
  C      -40.792     253.481     310.503
  O      -39.961     254.131     309.554
  C      -41.091     254.430     311.664
  O      -39.869     254.841     312.304
  C      -41.811     255.709     311.255
  O      -43.201     255.477     311.119
  C      -41.451     256.641     312.405
  O      -42.301     256.402     313.545
  C      -40.001     256.234     312.708
  N      -36.603     259.931     313.290
  C      -37.572     259.468     314.162
  N      -37.607     260.048     315.381
  N      -38.424     258.522     313.867
  C      -38.279     258.046     312.608
  C      -37.370     258.429     311.649
  C      -36.400     259.438     312.008
  O      -35.464     259.812     311.309
  N      -37.544     257.733     310.482
  C      -38.535     256.906     310.749
  N      -39.004     257.040     312.029
  O      -38.315     254.246     307.645
  O      -39.059     251.931     308.495
  H      -42.022     255.579     313.985
  H      -37.665     253.695     307.167
  H      -35.964     260.647     313.581
  H      -38.935     256.181     310.058
  H      -39.774     256.280     313.779
  H      -41.576     257.693     312.139
  H      -37.001     260.797     315.670
  H      -41.391     256.101     310.320
  H      -38.316     259.723     316.032
  H      -41.685     253.878     312.404
  H      -40.276     252.595     310.887
  H      -41.718     253.163     310.012
  P      -43.867     255.782     309.693
  C      -44.286     258.269     310.304
  O      -44.840     257.039     309.883
  O      -44.866     254.550     309.481
  O      -42.895     255.892     308.566
  H      -44.889     254.304     308.535
  H      -44.889     259.086     309.896
  H      -43.250     258.389     309.963
  H      -44.312     258.321     311.395
  H      -42.105     252.591     306.048
  H      -41.806     251.884     307.618
  H      -40.654     251.657     306.324

 3  4  5  6  7  8  9  10  11  12  23  26  30  31 0
 6-311+G(2d,p)
 ****
 33  35  36  37  38 0
 6-311+G(2d,p)
 ****
 1  2  13  14  15  16  17  18  19  20  21  22  24  25 0
 3-21G
 ****
 27  28  29  32  34  39  40  41  42  43  44  45  46  47  48  49 0
 3-21G
 ****


