%nproc=1
%NoSave
%Mem=1900MB
#P OB98/GEN NMR

erre ene a

0 1
  C      -52.880     -78.327    -133.771
  O      -52.337     -79.515    -133.232
  H      -53.053     -77.596    -132.976
  H      -52.169     -77.905    -134.486
  H      -53.819     -78.542    -134.288
  P      -53.216     -80.276    -132.126
  C      -52.151     -82.598    -132.621
  O      -52.332     -81.543    -131.687
  C      -50.763     -83.200    -132.439
  O      -49.750     -82.235    -132.809
  C      -50.448     -83.599    -131.001
  O      -50.982     -84.866    -130.658
  C      -48.930     -83.632    -131.042
  O      -48.487     -84.836    -131.694
  C      -48.617     -82.407    -131.915
  N      -45.163     -79.279    -129.793
  C      -45.029     -80.395    -130.542
  N      -46.000     -81.158    -131.087
  C      -47.212     -80.660    -130.802
  C      -47.504     -79.531    -130.055
  C      -46.410     -78.823    -129.530
  N      -46.543     -77.704    -128.739
  N      -48.871     -79.352    -129.960
  C      -49.390     -80.346    -130.653
  N      -48.428     -81.183    -131.152
  O      -54.401     -80.940    -132.971
  O      -53.703     -79.439    -130.991
  H      -47.514     -84.859    -131.619
  H      -55.117     -81.238    -132.378
  H      -44.009     -80.719    -130.726
  H      -50.448     -80.509    -130.811
  H      -47.723     -82.545    -132.532
  H      -48.481     -83.622    -130.046
  H      -50.768     -82.827    -130.291
  H      -50.667     -84.058    -133.115
  H      -52.250     -82.198    -133.636
  H      -45.710     -77.356    -128.289
  H      -47.463     -77.443    -128.417
  H      -52.918     -83.363    -132.459
  P      -52.081     -84.916    -129.487
  C      -52.747     -87.415    -129.719
  O      -52.091     -86.424    -128.938
  O      -53.460     -84.804    -130.287
  O      -51.937     -83.848    -128.453
  H      -54.134     -84.336    -129.757
  H      -52.671     -88.363    -129.229
  H      -52.285     -87.473    -130.682
  H      -53.778     -87.154    -129.833

 6  7  8  9  10  11  12  13  14  15  25  28  32  33  34  35 0
 6-311+G(2d,p)
 ****
 36  39  40 0
 6-311+G(2d,p)
 ****
 1  2  3  4  5  16  17  18  19  20  21  22  23  24 0
 3-21G
 ****
 26  27  29  30  31  37  38  41  42  43  44  45  46  47 0
 3-21G
 ****
 48 0
 3-21G
 ****


