%nproc=1
%NoSave
%Mem=1900MB
#P OB98/GEN NMR

erre ene a

0 1
  C      -33.179     -56.428      54.641
  O      -32.210     -57.016      55.485
  H      -33.320     -57.069      53.766
  H      -32.838     -55.445      54.304
  H      -34.134     -56.332      55.165
  P      -31.886     -56.247      56.855
  C      -30.063     -54.940      55.540
  O      -31.162     -54.876      56.441
  C      -29.175     -53.712      55.721
  O      -29.959     -52.516      55.510
  C      -28.579     -53.572      57.117
  O      -27.454     -54.413      57.301
  C      -28.238     -52.087      57.145
  O      -26.977     -51.825      56.518
  C      -29.373     -51.470      56.316
  N      -31.512     -47.038      57.641
  C      -30.562     -47.347      56.730
  N      -30.058     -48.561      56.423
  C      -30.647     -49.515      57.165
  C      -31.621     -49.351      58.134
  C      -32.063     -48.039      58.365
  N      -33.004     -47.720      59.316
  N      -31.940     -50.565      58.711
  C      -31.179     -51.447      58.094
  N      -30.386     -50.857      57.150
  O      -30.704     -57.124      57.486
  O      -33.038     -56.102      57.792
  H      -26.327     -52.421      56.938
  H      -31.077     -57.771      58.115
  H      -30.149     -46.506      56.178
  H      -31.160     -52.510      58.300
  H      -29.009     -50.698      55.628
  H      -28.177     -51.713      58.168
  H      -29.344     -53.774      57.878
  H      -28.383     -53.739      54.961
  H      -30.440     -54.963      54.511
  H      -29.498     -55.858      55.734
  H      -33.256     -46.753      59.443
  H      -33.342     -48.445      59.934
  P      -27.426     -55.384      58.574
  C      -26.451     -53.356      59.877
  O      -27.336     -54.465      59.886
  O      -25.979     -56.062      58.485
  O      -28.518     -56.400      58.607
  H      -26.046     -56.957      58.104
  H      -26.506     -52.848      60.817
  H      -26.729     -52.684      59.092
  H      -25.451     -53.699      59.715

 6  7  8  9  10  11  12  13  14  15  25  28  32  33  34  35 0
 6-311+G(2d,p)
 ****
 36  37  40 0
 6-311+G(2d,p)
 ****
 1  2  3  4  5  16  17  18  19  20  21  22  23  24 0
 3-21G
 ****
 26  27  29  30  31  38  39 41  42  43  44  45  46  47  48 0
 3-21G
 ****


