%nproc=1
%NoSave
%Mem=1900MB
#P OB98/GEN NMR

erre ene a

0 1
  C      300.141     783.896     160.224
  O      299.998     782.602     160.768
  H      299.270     784.109     159.599
  H      301.040     783.935     159.600
  H      300.204     784.655     161.009
  P      300.866     782.209     162.053
  C      301.300     779.703     161.598
  O      300.597     780.662     162.385
  C      300.968     778.270     162.019
  O      301.389     778.056     163.382
  C      299.462     777.979     161.968
  O      298.988     777.550     160.704
  C      299.321     776.876     163.013
  O      299.531     775.578     162.432
  C      300.432     777.194     164.025
  N      300.859     777.788     169.084
  C      301.509     776.897     168.257
  N      302.347     776.027     168.869
  N      301.336     776.846     166.965
  C      300.391     777.705     166.510
  C      299.664     778.631     167.238
  C      299.925     778.721     168.658
  O      299.382     779.512     169.428
  N      298.773     779.302     166.443
  C      298.890     778.725     165.262
  N      299.922     777.807     165.233
  O      300.112     782.958     163.256
  O      302.311     782.616     162.005
  H      300.451     775.531     162.117
  H      300.756     783.210     163.942
  H      301.055     777.796     170.067
  H      298.301     778.963     164.386
  H      300.972     776.290     164.323
  H      298.320     776.870     163.440
  H      302.453     775.958     169.874
  H      298.885     778.848     162.308
  H      302.700     775.230     168.331
  H      301.533     777.572     161.393
  H      302.362     779.901     161.747
  H      301.082     779.850     160.536
  P      297.818     778.332     159.949
  C      296.577     776.350     158.740
  O      297.404     777.497     158.658
  O      298.566     779.607     159.346
  O      296.655     778.718     160.803
  H      298.431     780.390     159.908
  H      296.427     775.947     157.760
  H      295.632     776.621     159.162
  H      297.047     775.615     159.359

 6  7  8  9  10  11  12  13  14  15  26  29  33  34 0
 6-311+G(2d,p)
 ****
 36  38  39  40  41 0
 6-311+G(2d,p)
 ****
 1  2  3  4  5  16  17  18  19  20  21  22  23  24  25 0
 3-21G
 ****
 27  28  30  31  32  35  37  42  43  44  45  46  47 0
 3-21G
 ****
 48  49 0
 3-21G
 ****


