%nproc=1
%NoSave
%Mem=1900MB
#P OB98/GEN NMR

erre ene a

0 1
  C      -33.781      69.179      32.059
  O      -33.472      67.823      31.830
  H      -32.853      69.712      32.285
  H      -34.455      69.284      32.911
  H      -34.232      69.624      31.168
  P      -34.672      66.768      31.662
  C      -34.319      65.585      33.911
  O      -35.162      66.457      33.167
  C      -35.040      65.020      35.136
  O      -34.176      64.072      35.815
  C      -35.450      66.086      36.159
  O      -36.803      65.861      36.562
  C      -34.504      65.849      37.326
  O      -35.037      66.328      38.557
  C      -34.288      64.335      37.227
  N      -33.112      63.877      37.957
  C      -33.329      62.919      38.951
  O      -34.471      62.529      39.198
  N      -32.257      62.453      39.668
  C      -31.076      62.940      39.450
  N      -30.057      62.444      40.201
  C      -30.808      63.987      38.443
  C      -31.859      64.400      37.736
  O      -34.335      65.563      30.851
  O      -35.881      67.627      31.062
  H      -34.355      66.214      39.255
  H      -36.536      67.019      30.637
  H      -29.808      64.369      38.305
  H      -31.755      65.160      36.968
  H      -35.164      63.791      37.606
  H      -33.557      66.370      37.141
  H      -35.368      67.101      35.780
  H      -35.908      64.447      34.790
  H      -30.282      61.726      40.878
  H      -33.424      66.137      34.216
  H      -29.099      62.752      40.122
  H      -34.025      64.755      33.257
  P      -37.909      66.807      35.882
  C      -37.752      68.664      37.682
  O      -37.594      68.322      36.313
  O      -39.242      66.447      36.691
  O      -38.070      66.582      34.416
  H      -39.795      65.835      36.171
  H      -37.510      69.697      37.822
  H      -37.100      68.061      38.278
  H      -38.766      68.492      37.978

 6  7  8  9  10  11  12  13  14  15  16  26  30  31  32  33  35 0
 6-311+G(2d,p)
 ****
 37  38 0
 6-311+G(2d,p)
 ****
 1  2  3  4  5  17  18  19  20  21  22  23  24  25 0
 3-21G
 ****
 27  28  29  34  36  39  40  41  42  43  44  45  46 0
 3-21G
 ****


