%nproc=1
%NoSave
%Mem=1900MB
#P OB98/GEN NMR

erre ene a

0 1
  C       51.143    -786.469    -460.341
  O       50.185    -785.404    -460.426
  P       50.031    -784.294    -459.279
  C       51.259    -782.182    -458.431
  O       51.215    -783.219    -459.410
  C       52.602    -781.438    -458.456
  O       53.697    -782.354    -458.275
  C       52.895    -780.691    -459.758
  O       52.140    -779.500    -459.849
  C       54.405    -780.492    -459.644
  O       54.718    -779.349    -458.817
  C       54.850    -781.800    -458.948
  N       55.428    -782.756    -459.880
  C       56.778    -782.552    -460.215
  O       57.397    -781.588    -459.774
  N       57.393    -783.452    -461.058
  C       56.689    -784.417    -461.579
  N       57.347    -785.274    -462.412
  C       55.243    -784.609    -461.335
  C       54.693    -783.745    -460.475
  O       49.871    -784.853    -457.899
  O       48.728    -783.448    -459.690
  H       54.439    -779.574    -457.915
  H       48.288    -783.128    -458.882
  H       54.698    -785.404    -461.814
  H       53.641    -783.824    -460.235
  H       55.579    -781.585    -458.157
  H       54.880    -780.336    -460.617
  H       52.676    -781.340    -460.608
  H       52.607    -780.739    -457.600
  H       58.336    -785.125    -462.557
  H       51.116    -782.637    -457.439
  H       56.898    -786.057    -462.872
  H       50.430    -781.487    -458.619
  P       50.617    -779.550    -460.323
  C       48.683    -780.872    -459.255
  O       49.723    -779.919    -459.051
  O       50.348    -780.364    -461.550
  O       50.241    -778.002    -460.578
  H       49.580    -777.956    -461.297
  H       48.441    -781.338    -458.302
  H       49.018    -781.659    -459.947
  H       47.811    -780.373    -459.656
  H       51.069    -787.086    -461.212
  H       50.946    -787.057    -459.469
  H       52.129    -786.058    -460.278

 3  4  5  6  7  8  9  10  11  12  13  23  27  28  29  30  32 0
 6-311+G(2d,p)
 ****
 34  35 0
 6-311+G(2d,p)
 ****
 1  2  14  15  16  17  18  19  20  21  22  24  25  26 0
 3-21G
 ****
 31  33  36  37  38  39  40  41  42  43  44  45  46 0
 3-21G
 ****


