%nproc=1
%NoSave
%Mem=1900MB
#P OB98/GEN NMR

erre ene a

0 1
  C      426.546    -221.171     185.490
  O      426.829    -222.559     185.284
  P      425.937    -223.639     186.067
  C      423.542    -224.640     185.862
  O      424.480    -223.682     185.398
  C      422.445    -224.876     184.818
  O      421.624    -223.708     184.622
  C      422.986    -225.227     183.435
  O      423.322    -226.602     183.343
  C      421.782    -224.915     182.563
  O      420.839    -226.012     182.627
  C      421.196    -223.671     183.242
  N      420.326    -220.281     179.497
  C      419.736    -221.458     179.810
  N      420.030    -222.310     180.807
  C      421.055    -221.840     181.545
  C      421.761    -220.657     181.352
  C      421.355    -219.858     180.270
  N      421.962    -218.655     179.967
  N      422.748    -220.516     182.299
  C      422.630    -221.587     183.064
  N      421.631    -222.422     182.645
  O      425.671    -222.925     187.476
  O      426.605    -224.960     186.238
  H      420.067    -225.754     182.089
  H      425.635    -223.595     188.184
  H      418.902    -221.751     179.160
  H      423.247    -221.798     183.934
  H      420.096    -223.670     183.236
  H      422.046    -224.786     181.508
  H      423.829    -224.571     183.163
  H      421.802    -225.692     185.178
  H      423.097    -224.306     186.803
  H      421.597    -218.129     179.185
  H      422.715    -218.329     180.551
  H      424.073    -225.577     186.093
  P      424.830    -227.019     183.728
  C      425.975    -227.822     185.927
  O      424.798    -227.344     185.305
  O      425.617    -225.625     183.634
  O      425.421    -228.068     182.855
  H      426.552    -225.790     183.384
  H      425.875    -227.699     187.004
  H      426.856    -227.268     185.584
  H      426.100    -228.889     185.702
  H      427.219    -220.579     184.905
  H      426.669    -220.932     186.526
  H      425.539    -220.964     185.193

 3  4  5  6  7  8  9  10  11  12  22  25  29  30  31  32 0
 6-311+G(2d,p)
 ****
 33  36  37 0
 6-311+G(2d,p)
 ****
 1  2  13  14  15  16  17  18  19  20  21  23  24  26 0
 3-21G
 ****
 27  28  34  35  38  39  40  41  42  43  44  45  46  47  48 0
 3-21G
 ****


