%nproc=1
%NoSave
%Mem=1900MB
#P OB98/GEN NMR

erre ene a

0 1
  C      -25.458     -90.117     -75.520
  O      -24.874     -89.273     -74.531
  P      -24.000     -89.966     -73.383
  C      -26.014     -90.733     -71.890
  O      -24.905     -91.095     -72.690
  C      -26.457     -91.906     -70.996
  O      -27.543     -91.450     -70.142
  C      -27.006     -93.120     -71.738
  O      -26.972     -94.253     -70.861
  C      -28.446     -92.711     -71.977
  O      -29.268     -93.833     -72.285
  C      -28.795     -91.962     -70.671
  N      -29.751     -90.851     -70.864
  C      -31.115     -91.127     -70.787
  O      -31.576     -92.246     -70.562
  N      -31.961     -90.071     -71.007
  C      -31.584     -88.789     -71.256
  O      -32.382     -87.899     -71.537
  C      -30.142     -88.521     -71.191
  C      -29.307     -89.544     -71.010
  O      -23.866     -88.827     -72.270
  O      -22.667     -90.452     -73.853
  H      -30.188     -93.490     -72.372
  H      -22.967     -88.446     -72.281
  H      -32.949     -90.273     -71.020
  H      -29.810     -87.497     -71.315
  H      -28.234     -89.373     -70.984
  H      -29.234     -92.643     -69.928
  H      -28.499     -92.028     -72.826
  H      -26.490     -93.356     -72.672
  H      -25.625     -92.196     -70.344
  H      -26.842     -90.406     -72.524
  H      -25.748     -89.878     -71.256
  P      -26.041     -95.493     -71.274
  C      -27.807     -96.805     -72.608
  O      -26.615     -96.042     -72.668
  O      -25.819     -96.518     -70.215
  O      -24.672     -94.783     -71.715
  H      -23.948     -95.431     -71.702
  H      -28.358     -96.674     -73.544
  H      -28.445     -96.486     -71.775
  H      -27.553     -97.861     -72.486
  H      -26.009     -89.521     -76.217
  H      -26.117     -90.816     -75.049
  H      -24.686     -90.648     -76.037

 3  4  5  6  7  8  9  10  11  12  13  23  28  29  30  31  32 0
 6-311+G(2d,p)
 ****
 33  34 0
 6-311+G(2d,p)
 ****
 1  2  14  15  16  17  18  19  20  21  22  24  25  26  27 0
 3-21G
 ****
 35  36  37  38  39  40  41  42  43  44  45 0
 3-21G
 ****


