%nproc=1
%NoSave
%Mem=1900MB
#P OB98/GEN NMR

erre ene a

0 1
  C       24.711     -14.499      76.057
  O       23.466     -15.165      76.135
  H       24.712     -13.864      75.167
  H       25.528     -15.221      75.972
  H       24.861     -13.867      76.937
  P       23.225     -16.195      77.337
  C       23.415     -16.085      79.911
  O       23.687     -15.437      78.674
  C       24.533     -15.806      80.912
  O       25.776     -16.365      80.444
  C       24.797     -14.323      81.163
  O       23.864     -13.800      82.094
  C       26.208     -14.383      81.722
  O       26.168     -14.826      83.093
  C       26.851     -15.468      80.838
  N       31.230     -13.891      78.814
  C       30.920     -14.193      80.126
  N       31.906     -14.021      81.032
  N       29.743     -14.613      80.517
  C       28.836     -14.671      79.516
  C       29.019     -14.380      78.182
  C       30.343     -13.981      77.752
  O       30.667     -13.728      76.594
  N       27.842     -14.465      77.482
  C       26.959     -14.857      78.381
  N       27.511     -14.988      79.636
  O       23.832     -17.555      77.169
  O       21.634     -16.262      77.487
  H       25.859     -15.750      83.087
  H       21.260     -16.987      76.953
  H       32.152     -13.564      78.574
  H       25.916     -15.063      78.181
  H       27.590     -16.062      81.389
  H       26.711     -13.414      81.711
  H       32.778     -13.562      80.818
  H       24.809     -13.753      80.228
  H       31.678     -14.182      82.006
  H       24.281     -16.323      81.847
  H       23.339     -17.158      79.711
  H       22.461     -15.737      80.322
  P       23.407     -12.259      82.051
  C       21.843     -11.022      80.404
  O       22.820     -12.033      80.575
  O       24.456     -11.284      82.461
  O       22.085     -12.215      82.945
  H       22.276     -12.108      83.911
  H       21.545     -10.984      79.377
  H       22.254     -10.077      80.691
  H       20.992     -11.241      81.015

 6  7  8  9  10  11  12  13  14  15  26  29  33  34 0
 6-311+G(2d,p)
 ****
 36  38  39  40  41 0
 6-311+G(2d,p)
 ****
 1  2  3  4  5  16  17  18  19  20  21  22  23  24  25 0
 3-21G
 ****
 27  28  30  31  32  35  37  42  43  44  45  46  47 0
 3-21G
 ****
 48  49 0
 3-21G
 ****


