%nproc=1
%NoSave
%Mem=1900MB
#P OB98/GEN NMR

erre ene a

0 1
  C      -26.846    -489.854     549.391
  O      -26.781    -489.163     548.165
  H      -26.656    -489.152     550.202
  H      -26.082    -490.642     549.417
  H      -27.834    -490.294     549.527
  P      -27.058    -490.010     546.822
  C      -24.777    -491.189     546.381
  O      -25.624    -490.091     546.087
  C      -23.326    -490.856     546.024
  O      -23.211    -490.735     544.582
  C      -22.822    -489.554     546.647
  O      -21.485    -489.749     547.133
  C      -22.828    -488.567     545.500
  O      -21.885    -487.510     545.691
  C      -22.572    -489.474     544.288
  N      -23.096    -488.892     543.046
  C      -22.147    -488.449     542.119
  O      -20.940    -488.548     542.357
  N      -22.582    -487.867     540.956
  C      -23.852    -487.672     540.773
  N      -24.226    -487.066     539.607
  C      -24.885    -488.082     541.752
  C      -24.436    -488.678     542.852
  O      -27.887    -488.987     545.924
  O      -27.727    -491.325     547.034
  H      -20.982    -487.911     545.747
  H      -28.304    -489.441     545.151
  H      -25.932    -487.878     541.558
  H      -25.130    -489.006     543.619
  H      -21.493    -489.664     544.166
  H      -23.827    -488.110     545.412
  H      -23.452    -489.210     547.465
  H      -22.688    -491.715     546.302
  H      -23.479    -486.796     538.967
  H      -25.115    -492.068     545.810
  H      -25.184    -486.839     539.371
  H      -24.845    -491.420     547.457
  P      -21.366    -490.193     548.690
  C      -20.984    -487.902     549.848
  O      -20.414    -489.122     549.413
  O      -20.501    -491.532     548.635
  O      -22.695    -490.396     549.342
  H      -21.074    -492.319     548.697
  H      -20.229    -487.299     550.307
  H      -21.759    -488.103     550.558
  H      -21.395    -487.381     549.009

 6  7  8  9  10  11  12  13  14  15  16  26  30  31  32  33  35 0
 6-311+G(2d,p)
 ****
 37  38 0
 6-311+G(2d,p)
 ****
 1  2  3  4  5  17  18  19  20  21  22  23  24  25 0
 3-21G
 ****
 27  28  29  34  36  39  40  41  42  43  44  45  46 0
 3-21G
 ****


