%nproc=1
%NoSave
%Mem=1900MB
#P OB98/GEN NMR

erre ene a

0 1
  C      484.165     -11.190      88.195
  O      484.219      -9.831      88.581
  H      485.180     -11.544      88.001
  H      483.575     -11.295      87.280
  H      483.724     -11.796      88.991
  P      482.841      -9.142      89.024
  C      483.956      -7.814      90.967
  O      483.238      -7.761      89.743
  C      484.653      -6.476      91.213
  O      485.668      -6.286      90.193
  C      483.704      -5.274      91.149
  O      484.104      -4.306      92.124
  C      483.932      -4.725      89.752
  O      483.593      -3.352      89.613
  C      485.429      -5.003      89.572
  N      485.833      -5.023      88.168
  C      486.861      -4.169      87.783
  O      487.500      -3.452      88.551
  N      487.144      -4.152      86.442
  C      486.502      -4.866      85.473
  O      486.787      -4.791      84.283
  C      485.419      -5.746      85.939
  C      485.137      -5.781      87.245
  O      482.345     -10.057      90.239
  O      481.813      -9.006      87.950
  H      481.777     -10.783      89.912
  H      483.593      -3.137      88.656
  H      487.889      -3.538      86.146
  H      484.883      -6.321      85.198
  H      484.336      -6.407      87.618
  H      486.024      -4.261      90.116
  H      483.347      -5.296      89.023
  H      482.660      -5.548      91.310
  H      485.170      -6.519      92.183
  H      484.709      -8.608      90.907
  H      483.264      -8.039      91.783
  P      483.056      -3.944      93.284
  C      484.846      -3.909      95.189
  O      483.898      -3.185      94.420
  O      482.759      -5.389      93.902
  O      481.858      -3.213      92.777
  H      483.541      -5.967      93.925
  H      485.311      -3.251      95.893
  H      485.591      -4.321      94.541
  H      484.351      -4.700      95.713

 6  7  8  9  10  11  12  13  14  15  16  27  31  32  33  34  35 0
 6-311+G(2d,p)
 ****
 36  37 0
 6-311+G(2d,p)
 ****
 1  2  3  4  5  17  18  19  20  21  22  23  24  25 0
 3-21G
 ****
 26  28  29  30  38  39  40  41  42  43  44  45 0
 3-21G
 ****


