%nproc=1
%NoSave
%Mem=1900MB
#P OB98/GEN NMR

erre ene a

0 1
  C      157.114      16.589     100.943
  O      157.161      17.953     100.579
  H      156.755      16.009     100.088
  H      156.425      16.446     101.779
  H      158.111      16.234     101.216
  P      157.706      18.977     101.687
  C      159.625      19.894     100.191
  O      158.415      20.172     100.885
  C      160.141      21.164      99.523
  O      159.226      21.563      98.477
  C      160.245      22.365     100.457
  O      161.411      22.313     101.258
  C      160.244      23.516      99.460
  O      161.552      23.749      98.923
  C      159.311      23.001      98.357
  N      156.692      27.363      98.056
  C      157.997      27.077      97.857
  N      158.614      25.879      97.939
  C      157.733      24.915      98.255
  C      156.378      25.057      98.495
  C      155.851      26.353      98.381
  N      154.530      26.650      98.619
  N      155.817      23.842      98.838
  C      156.815      22.982      98.797
  N      157.988      23.586      98.445
  O      158.932      18.178     102.339
  O      156.705      19.400     102.710
  H      162.084      24.141      99.643
  H      158.628      17.710     103.139
  H      158.629      27.923      97.601
  H      156.739      21.925      99.020
  H      159.695      23.219      97.354
  H      159.915      24.445      99.927
  H      159.347      22.437     101.082
  H      161.112      20.946      99.060
  H      159.436      19.135      99.424
  H      160.360      19.506     100.903
  H      154.226      27.607      98.542
  H      153.918      25.923      98.965
  P      161.330      22.859     102.762
  C      163.069      21.145     103.657
  O      162.721      22.509     103.482
  O      160.283      21.867     103.455
  O      160.915      24.286     102.885
  H      159.404      22.285     103.510
  H      164.017      21.079     104.148
  H      163.128      20.667     102.702
  H      162.324      20.660     104.253

 6  7  8  9  10  11  12  13  14  15  25  28  32  33  34  35 0
 6-311+G(2d,p)
 ****
 36  37  40 0
 6-311+G(2d,p)
 ****
 1  2  3  4  5  16  17  18  19  20  21  22  23  24 0
 3-21G
 ****
 26  27  29  30  31  38  39 41  42  43  44  45  46  47  48 0
 3-21G
 ****


