%nproc=1
%NoSave
%Mem=1900MB
#P OB98/GEN NMR

erre ene a

0 1
  C      881.818    -407.338     299.843
  O      880.885    -408.071     299.040
  P      881.430    -409.139     297.972
  C      879.712    -410.950     298.754
  O      880.279    -410.217     297.683
  C      878.626    -411.900     298.239
  O      877.522    -411.147     297.690
  C      879.073    -412.816     297.111
  O      879.862    -413.902     297.592
  C      877.744    -413.256     296.529
  O      877.178    -414.337     297.272
  C      876.899    -411.971     296.688
  N      876.715    -411.252     295.429
  C      875.534    -411.488     294.739
  O      874.686    -412.307     295.108
  N      875.366    -410.779     293.578
  C      876.277    -409.932     293.011
  O      876.082    -409.343     291.957
  C      877.540    -409.780     293.748
  C      877.706    -410.446     294.895
  O      882.464    -409.990     298.853
  O      882.108    -408.559     296.770
  H      876.210    -414.325     297.098
  H      883.169    -410.352     298.276
  H      874.505    -410.919     293.075
  H      878.306    -409.140     293.334
  H      878.635    -410.347     295.457
  H      875.902    -412.227     297.083
  H      877.830    -413.597     295.492
  H      879.629    -412.241     296.357
  H      878.252    -412.489     299.100
  H      879.269    -410.255     299.476
  H      880.510    -411.517     299.259
  P      881.351    -414.037     296.988
  C      881.964    -415.922     298.699
  O      881.805    -415.528     297.350
  O      882.170    -413.096     297.984
  O      881.442    -413.643     295.549
  H      881.809    -413.119     298.897
  H      881.248    -415.424     299.349
  H      882.988    -415.699     299.017
  H      881.809    -417.012     298.762
  H      881.286    -406.676     300.494
  H      882.465    -406.769     299.208
  H      882.400    -408.021     300.426

 3  4  5  6  7  8  9  10  11  12  13  23  28  29  30  31  32 0
 6-311+G(2d,p)
 ****
 33  34 0
 6-311+G(2d,p)
 ****
 1  2  14  15  16  17  18  19  20  21  22  24  25  26 0
 3-21G
 ****
 27  35  36  37  38  39  40  41  42  43  44  45 0
 3-21G
 ****


