%nproc=1
%NoSave
%Mem=1900MB
#P OB98/GEN NMR

erre ene a

0 1
  C     -181.853      86.453    -303.669
  O     -180.580      85.874    -303.867
  H     -182.562      85.660    -303.412
  H     -182.192      86.939    -304.586
  H     -181.827      87.177    -302.850
  P     -179.314      86.837    -304.055
  C     -178.375      86.279    -301.717
  O     -178.145      86.256    -303.122
  C     -177.416      85.320    -301.017
  O     -177.756      83.954    -301.341
  C     -175.957      85.491    -301.428
  O     -175.387      86.637    -300.815
  C     -175.375      84.164    -300.967
  O     -175.120      84.177    -299.554
  C     -176.527      83.187    -301.310
  N     -176.327      82.475    -302.567
  C     -175.367      81.467    -302.566
  O     -174.682      81.196    -301.579
  N     -175.205      80.791    -303.745
  C     -175.835      81.072    -304.924
  O     -175.614      80.467    -305.968
  C     -176.815      82.170    -304.877
  C     -177.011      82.808    -303.720
  O     -179.577      88.298    -303.896
  O     -178.795      86.491    -305.531
  H     -174.948      83.252    -299.292
  H     -179.102      87.173    -306.156
  H     -174.504      80.067    -303.766
  H     -177.329      82.426    -305.796
  H     -177.725      83.625    -303.672
  H     -176.646      82.445    -300.511
  H     -174.432      83.926    -301.455
  H     -175.873      85.552    -302.518
  H     -177.533      85.449    -299.933
  H     -179.406      85.971    -301.524
  H     -178.237      87.304    -301.352
  P     -174.214      87.450    -301.531
  C     -175.270      89.705    -300.939
  O     -174.114      88.886    -300.820
  O     -174.286      87.497    -303.023
  O     -172.880      86.711    -301.044
  H     -172.511      86.176    -301.772
  H     -175.103      90.634    -300.435
  H     -176.108      89.206    -300.498
  H     -175.470      89.892    -301.973

 6  7  8  9  10  11  12  13  14  15  16  26  31  32  33  34  35 0
 6-311+G(2d,p)
 ****
 36  37 0
 6-311+G(2d,p)
 ****
 1  2  3  4  5  17  18  19  20  21  22  23  24  25 0
 3-21G
 ****
 27  28  29  30  38  39  40  41  42  43  44  45 0
 3-21G
 ****


