%nproc=1
%NoSave
%Mem=1900MB
#P OB98/GEN NMR

erre ene a

0 1
  C       63.699    -168.797     -24.602
  O       63.575    -170.183     -24.840
  H       63.785    -168.285     -25.563
  H       64.596    -168.588     -24.013
  H       62.814    -168.419     -24.081
  P       63.497    -171.177     -23.585
  C       61.245    -170.690     -22.418
  O       61.943    -171.508     -23.352
  C       59.734    -170.932     -22.529
  O       59.311    -170.483     -23.840
  C       59.364    -172.414     -22.381
  O       58.362    -172.641     -21.392
  C       59.067    -172.842     -23.814
  O       58.180    -173.936     -23.924
  C       58.574    -171.548     -24.469
  N       58.756    -171.514     -25.920
  C       57.776    -172.120     -26.701
  O       56.765    -172.668     -26.268
  N       57.988    -172.074     -28.056
  C       59.059    -171.512     -28.685
  O       59.192    -171.500     -29.903
  C       60.075    -170.914     -27.804
  C       59.880    -170.943     -26.484
  O       64.229    -170.733     -22.364
  O       64.076    -172.560     -24.148
  H       57.420    -173.753     -23.332
  H       64.979    -172.699     -23.802
  H       57.278    -172.495     -28.634
  H       60.944    -170.471     -28.270
  H       60.608    -170.509     -25.805
  H       57.513    -171.395     -24.266
  H       60.009    -173.144     -24.287
  H       60.218    -172.994     -22.009
  H       59.223    -170.310     -21.785
  H       61.481    -169.645     -22.645
  H       61.584    -170.920     -21.402
  P       58.332    -173.875     -20.383
  C       59.824    -173.412     -18.267
  O       58.552    -173.326     -18.897
  O       59.134    -175.067     -20.785
  O       56.779    -174.319     -20.370
  H       56.773    -175.287     -20.227
  H       59.764    -172.993     -17.284
  H       60.545    -172.869     -18.843
  H       60.120    -174.438     -18.200

 6  7  8  9  10  11  12  13  14  15  16  26  31  32  33  34  35 0
 6-311+G(2d,p)
 ****
 36  37 0
 6-311+G(2d,p)
 ****
 1  2  3  4  5  17  18  19  20  21  22  23  24  25 0
 3-21G
 ****
 27  28  29  30  38  39  40  41  42  43  44  45 0
 3-21G
 ****


