%nproc=1
%NoSave
%Mem=1900MB
#P OB98/GEN NMR

erre ene a

0 1
  C      -20.223     209.291    -280.715
  O      -21.533     209.795    -280.559
  H      -19.599     210.071    -281.160
  H      -20.227     208.426    -281.382
  H      -19.795     209.012    -279.748
  P      -22.612     208.908    -279.772
  C      -23.637     208.469    -282.097
  O      -23.264     207.909    -280.843
  C      -23.207     207.542    -283.229
  O      -21.766     207.406    -283.236
  C      -23.748     206.122    -283.103
  O      -25.116     206.055    -283.452
  C      -22.804     205.374    -284.030
  O      -23.212     205.503    -285.398
  C      -21.465     206.105    -283.789
  N      -20.579     205.351    -282.902
  C      -19.960     204.233    -283.457
  O      -20.114     203.882    -284.625
  N      -19.193     203.491    -282.601
  C      -19.105     203.673    -281.247
  O      -18.612     202.847    -280.489
  C      -19.728     204.901    -280.727
  C      -20.435     205.665    -281.564
  O      -23.586     209.668    -278.936
  O      -21.711     207.932    -278.873
  H      -21.701     208.259    -277.955
  H      -22.516     205.061    -285.927
  H      -18.773     202.657    -282.986
  H      -19.620     205.119    -279.672
  H      -20.935     206.557    -281.198
  H      -20.944     206.275    -284.739
  H      -22.770     204.309    -283.791
  H      -23.600     205.761    -282.077
  H      -23.512     207.992    -284.183
  H      -23.139     209.439    -282.210
  H      -24.721     208.623    -282.110
  P      -26.207     205.618    -282.361
  C      -26.779     203.681    -283.951
  O      -26.564     204.074    -282.599
  O      -27.387     206.525    -282.248
  O      -25.385     205.583    -280.987
  H      -25.877     206.094    -280.312
  H      -27.008     202.636    -283.987
  H      -25.895     203.872    -284.523
  H      -27.595     204.240    -284.359

 6  7  8  9  10  11  12  13  14  15  16  27  31  32  33  34  35 0
 6-311+G(2d,p)
 ****
 36  37 0
 6-311+G(2d,p)
 ****
 1  2  3  4  5  17  18  19  20  21  22  23  24  25 0
 3-21G
 ****
 26  28  29  30  38  39  40  41  42  43  44  45 0
 3-21G
 ****


