%nproc=1
%NoSave
%Mem=1900MB
#P OB98/GEN NMR

erre ene a

0 1
  C       46.099      28.744    -119.769
  O       47.023      29.047    -120.794
  H       45.392      29.574    -119.681
  H       46.617      28.626    -118.815
  H       45.542      27.834    -120.005
  P       48.095      27.936    -121.222
  C       49.862      28.928    -119.631
  O       49.113      27.775    -119.995
  C       50.988      28.537    -118.677
  O       50.470      27.732    -117.595
  C       52.086      27.703    -119.329
  O       52.924      28.511    -120.130
  C       52.747      27.105    -118.096
  O       53.627      28.052    -117.471
  C       51.523      26.825    -117.192
  N       51.074      25.433    -117.259
  C       51.674      24.552    -116.366
  O       52.537      24.892    -115.559
  N       51.278      23.244    -116.463
  C       50.432      22.735    -117.404
  O       50.277      21.532    -117.594
  C       49.773      23.722    -118.271
  C       50.129      25.005    -118.172
  O       48.736      28.133    -122.554
  O       47.259      26.569    -121.173
  H       47.003      26.315    -122.080
  H       53.127      28.888    -117.400
  H       51.742      22.587    -115.851
  H       49.044      23.365    -118.989
  H       49.678      25.746    -118.821
  H       51.757      27.058    -116.145
  H       53.343      26.221    -118.331
  H       51.643      26.893    -119.920
  H       51.404      29.457    -118.244
  H       49.191      29.636    -119.132
  H       50.263      29.395    -120.537
  P       53.778      27.883    -121.328
  C       55.472      27.177    -119.539
  O       54.771      26.786    -120.711
  O       54.438      28.879    -122.225
  O       52.722      26.995    -122.142
  H       52.745      27.254    -123.084
  H       56.102      26.375    -119.216
  H       54.771      27.414    -118.766
  H       56.072      28.037    -119.752

 6  7  8  9  10  11  12  13  14  15  16  27  31  32  33  34  35 0
 6-311+G(2d,p)
 ****
 36  37 0
 6-311+G(2d,p)
 ****
 1  2  3  4  5  17  18  19  20  21  22  23  24  25 0
 3-21G
 ****
 26  28  29  30  38  39  40  41  42  43  44  45 0
 3-21G
 ****


