%nproc=1
%NoSave
%Mem=1900MB
#P OB98/GEN NMR

erre ene a

0 1
  C       20.545     147.871     -80.183
  O       21.585     147.062     -79.628
  P       21.146     145.760     -78.801
  C       23.170     145.774     -77.162
  O       22.460     145.082     -78.183
  C       24.621     145.293     -77.111
  O       24.694     143.854     -77.135
  C       25.447     145.752     -78.300
  O       25.832     147.105     -78.147
  C       26.614     144.773     -78.274
  O       27.700     145.261     -77.469
  C       25.991     143.505     -77.645
  N       25.910     142.397     -78.583
  C       27.128     141.939     -79.097
  O       28.184     142.483     -78.768
  N       27.113     140.895     -79.986
  C       25.983     140.373     -80.350
  N       26.031     139.345     -81.238
  C       24.674     140.846     -79.852
  C       24.712     141.851     -78.981
  O       20.703     144.732     -79.944
  O       20.042     146.007     -77.825
  H       28.404     144.583     -77.539
  H       19.982     144.160     -79.624
  H       23.758     140.384     -80.191
  H       23.798     142.264     -78.563
  H       26.587     143.175     -76.786
  H       27.019     144.606     -79.278
  H       24.875     145.620     -79.227
  H       25.076     145.654     -76.178
  H       26.946     139.049     -81.560
  H       22.689     145.615     -76.196
  H       25.214     138.872     -81.594
  H       23.120     146.849     -77.365
  P       25.151     148.188     -79.108
  C       27.284     149.438     -79.801
  O       26.102     149.476     -79.024
  O       23.885     148.657     -78.241
  O       24.756     147.740     -80.474
  H       23.325     149.257     -78.764
  H       27.724     150.438     -79.819
  H       27.061     149.133     -80.826
  H       28.001     148.746     -79.352
  H       20.977     148.699     -80.704
  H       19.917     148.233     -79.396
  H       19.963     147.286     -80.864

 3  4  5  6  7  8  9  10  11  12  13  21  23  27  28  29  30  32 0
 6-311+G(2d,p)
 ****
 34  35 0
 6-311+G(2d,p)
 ****
 1  2  14  15  16  17  18  19  20  22  24  25  26 0
 3-21G
 ****
 31  33  36  37  38  39  40  41  42  43  44  45  46 0
 3-21G
 ****


