%nproc=1
%NoSave
%Mem=1900MB
#P OB98/GEN NMR

erre ene a

0 1
  C       92.994     360.008     164.850
  O       92.911     358.756     164.199
  H       93.237     360.772     164.109
  H       93.778     359.987     165.609
  H       92.036     360.254     165.313
  P       92.669     357.476     165.139
  C       90.155     358.039     165.562
  O       91.104     357.165     164.963
  C       88.866     358.044     164.753
  O       89.026     358.826     163.543
  C       88.401     356.666     164.279
  O       87.785     355.905     165.300
  C       87.420     357.077     163.199
  O       86.207     357.559     163.813
  C       88.193     358.216     162.516
  N       89.025     357.753     161.394
  C       89.050     358.569     160.257
  O       88.398     359.614     160.214
  N       89.786     358.160     159.170
  C       90.458     357.048     159.217
  N       91.164     356.698     158.113
  C       90.470     356.172     160.405
  C       89.742     356.580     161.443
  O       92.739     358.082     166.619
  O       93.573     356.310     164.904
  H       86.439     358.380     164.289
  H       92.455     357.401     167.276
  H       91.033     355.253     160.398
  H       89.706     355.987     162.352
  H       87.510     358.992     162.145
  H       87.134     356.259     162.543
  H       89.220     356.105     163.819
  H       88.094     358.538     165.358
  H       91.087     357.292     157.299
  H       90.590     359.045     165.591
  H       91.591     355.784     158.002
  H       89.941     357.715     166.585
  P       87.614     354.329     165.047
  C       89.877     353.394     165.943
  O       88.475     353.576     166.164
  O       88.451     354.085     163.700
  O       86.196     353.863     164.912
  H       88.040     353.386     163.159
  H       90.305     352.877     166.776
  H       90.348     354.349     165.835
  H       90.026     352.820     165.052

 6  7  8  9  10  11  12  13  14  15  16  26  30  31  32  33  35 0
 6-311+G(2d,p)
 ****
 37  38 0
 6-311+G(2d,p)
 ****
 1  2  3  4  5  17  18  19  20  21  22  23  24  25 0
 3-21G
 ****
 27  28  29  34  36  39  40  41  42  43  44  45  46 0
 3-21G
 ****


