%nproc=1
%NoSave
%Mem=1900MB
#P OB98/GEN NMR

erre ene a

0 1
  C     -179.987     -34.604    -185.363
  O     -180.604     -35.582    -186.181
  H     -178.923     -34.847    -185.273
  H     -180.435     -34.615    -184.363
  H     -180.079     -33.608    -185.803
  P     -182.098     -35.321    -186.700
  C     -184.396     -36.375    -186.159
  O     -183.078     -36.103    -185.695
  C     -185.289     -36.839    -185.012
  O     -184.754     -38.089    -184.472
  C     -185.371     -35.839    -183.829
  O     -186.686     -35.961    -183.255
  C     -184.311     -36.392    -182.900
  O     -184.407     -35.843    -181.610
  C     -184.580     -37.890    -183.052
  N     -183.523     -38.732    -182.518
  C     -183.550     -39.008    -181.153
  O     -184.427     -38.606    -180.386
  N     -182.507     -39.774    -180.688
  C     -181.479     -40.267    -181.425
  O     -180.584     -40.970    -180.956
  C     -181.487     -39.916    -182.857
  C     -182.493     -39.181    -183.326
  O     -182.339     -35.592    -188.152
  O     -182.364     -33.787    -186.338
  H     -182.212     -33.230    -187.128
  H     -185.316     -35.935    -181.264
  H     -182.515     -39.984    -179.699
  H     -180.672     -40.275    -183.464
  H     -182.530     -38.897    -184.382
  H     -185.533     -38.160    -182.577
  H     -183.310     -36.135    -183.279
  H     -185.205     -34.796    -184.143
  H     -186.294     -37.067    -185.404
  H     -184.332     -37.159    -186.923
  H     -184.812     -35.468    -186.616
  P     -187.675     -34.722    -183.031
  C     -188.260     -33.023    -181.173
  O     -187.357     -34.038    -181.613
  O     -189.116     -35.060    -183.220
  O     -187.207     -33.613    -184.099
  H     -188.006     -33.136    -184.426
  H     -187.941     -32.649    -180.222
  H     -189.243     -33.435    -181.082
  H     -188.272     -32.224    -181.884

 6  7  8  9  10  11  12  13  14  15  16  27  31  32  33  34  35 0
 6-311+G(2d,p)
 ****
 36  37 0
 6-311+G(2d,p)
 ****
 1  2  3  4  5  17  18  19  20  21  22  23  24  25 0
 3-21G
 ****
 26  28  29  30  38  39  40  41  42  43  44  45 0
 3-21G
 ****


