%nproc=1
%NoSave
%Mem=1900MB
#P OB98/GEN NMR

erre ene a

0 1
  C      108.716    -141.730     -30.678
  O      109.590    -142.561     -29.947
  H      108.944    -140.688     -30.433
  H      107.676    -141.928     -30.407
  H      108.858    -141.878     -31.753
  P      109.353    -144.152     -29.964
  C      108.114    -144.072     -27.719
  O      108.005    -144.378     -29.103
  C      106.861    -144.501     -26.950
  O      105.721    -143.722     -27.403
  C      106.508    -145.984     -27.120
  O      106.209    -146.552     -25.841
  C      105.258    -145.959     -27.991
  O      104.463    -147.131     -27.828
  C      104.616    -144.637     -27.547
  N      103.621    -144.141     -28.493
  C      102.308    -144.594     -28.317
  O      102.047    -145.403     -27.423
  N      101.335    -144.157     -29.176
  C      101.649    -143.376     -30.162
  N      100.637    -142.984     -30.987
  C      103.027    -142.908     -30.417
  C      103.954    -143.318     -29.545
  O      110.524    -144.964     -29.521
  O      108.878    -144.471     -31.460
  H      103.757    -147.123     -28.514
  H      109.014    -145.433     -31.649
  H      103.243    -142.265     -31.257
  H      104.993    -143.018     -29.648
  H      104.134    -144.749     -26.566
  H      105.552    -145.892     -29.048
  H      107.302    -146.565     -27.579
  H      107.003    -144.243     -25.890
  H       99.706    -143.326     -30.778
  H      108.277    -142.993     -27.610
  H      100.764    -142.384     -31.790
  H      108.979    -144.610     -27.315
  P      107.473    -146.917     -24.919
  C      107.863    -149.045     -26.348
  O      108.438    -147.885     -25.764
  O      106.845    -147.878     -23.804
  O      108.140    -145.724     -24.313
  H      106.694    -147.381     -22.977
  H      108.617    -149.590     -26.876
  H      107.090    -148.756     -27.029
  H      107.449    -149.663     -25.579

 6  7  8  9  10  11  12  13  14  15  16  26  30  31  32  33  35 0
 6-311+G(2d,p)
 ****
 37  38 0
 6-311+G(2d,p)
 ****
 1  2  3  4  5  17  18  19  20  21  22  23  24  25 0
 3-21G
 ****
 27  28  29  34  36  39  40  41  42  43  44  45  46 0
 3-21G
 ****


