%nproc=1
%NoSave
%Mem=1900MB
#P OB98/GEN NMR

erre ene a

0 1
  C     -787.437    -113.649     392.659
  O     -786.180    -113.783     393.288
  H     -788.200    -114.096     393.298
  H     -787.429    -114.177     391.701
  H     -787.690    -112.598     392.497
  P     -784.932    -112.962     392.712
  C     -784.143    -114.897     391.199
  O     -783.826    -114.051     392.295
  C     -782.960    -115.803     390.853
  O     -781.879    -114.989     390.319
  C     -782.397    -116.581     392.054
  O     -781.881    -117.822     391.557
  C     -781.265    -115.682     392.501
  O     -780.355    -116.365     393.338
  C     -780.721    -115.214     391.149
  N     -779.887    -114.015     391.266
  C     -778.635    -114.073     390.671
  O     -778.204    -115.072     390.097
  N     -777.860    -112.953     390.791
  C     -778.189    -111.829     391.488
  O     -777.440    -110.862     391.595
  C     -779.510    -111.840     392.135
  C     -780.290    -112.915     391.995
  O     -784.424    -111.861     393.581
  O     -785.438    -112.419     391.293
  H     -780.125    -117.234     392.948
  H     -784.998    -111.572     391.082
  H     -776.951    -112.973     390.355
  H     -779.798    -110.966     392.706
  H     -781.269    -112.952     392.458
  H     -780.120    -115.999     390.679
  H     -781.652    -114.828     393.072
  H     -783.139    -116.762     392.834
  H     -783.265    -116.486     390.050
  H     -784.386    -114.260     390.339
  H     -785.018    -115.506     391.448
  P     -782.838    -119.054     391.171
  C     -782.837    -119.628     393.687
  O     -782.785    -120.139     392.357
  O     -782.587    -119.617     389.811
  O     -784.323    -118.464     391.278
  H     -784.915    -118.946     390.667
  H     -782.795    -120.440     394.383
  H     -783.749    -119.087     393.826
  H     -782.006    -118.974     393.851

 6  7  8  9  10  11  12  13  14  15  16  26  31  32  33  34  35 0
 6-311+G(2d,p)
 ****
 36  37 0
 6-311+G(2d,p)
 ****
 1  2  3  4  5  17  18  19  20  21  22  23  24  25 0
 3-21G
 ****
 27  28  29  30  38  39  40  41  42  43  44  45 0
 3-21G
 ****


