%nproc=1
%NoSave
%Mem=1900MB
#P OB98/GEN NMR

erre ene a

0 1
  C      -12.125    -171.997     163.132
  O      -10.815    -172.164     162.631
  P      -10.062    -173.581     162.705
  C      -10.374    -173.819     165.249
  O       -9.444    -173.667     164.184
  C       -9.910    -173.075     166.505
  O      -10.907    -173.224     167.553
  C       -8.566    -173.552     167.073
  O       -7.930    -172.396     167.624
  C       -8.998    -174.504     168.173
  O       -7.967    -174.741     169.128
  C      -10.240    -173.778     168.707
  N      -11.109    -174.672     169.469
  C      -10.742    -174.920     170.796
  O       -9.692    -174.460     171.250
  N      -11.542    -175.733     171.562
  C      -12.563    -176.326     171.018
  N      -13.325    -177.111     171.827
  C      -12.909    -176.189     169.591
  C      -12.157    -175.346     168.887
  O       -9.093    -173.845     161.602
  O      -11.259    -174.641     162.771
  H       -8.377    -175.125     169.936
  H      -11.659    -174.769     161.872
  H      -13.733    -176.745     169.169
  H      -12.333    -175.178     167.830
  H       -9.950    -172.942     169.356
  H       -9.278    -175.471     167.740
  H       -7.922    -174.032     166.333
  H       -9.854    -172.007     166.259
  H      -13.059    -177.165     172.804
  H      -10.449    -174.887     165.481
  H      -14.178    -177.549     171.526
  H      -11.364    -173.475     164.934
  P       -7.140    -171.356     166.694
  C       -4.679    -172.037     166.850
  O       -5.684    -171.167     167.332
  O       -7.873    -170.082     166.409
  O       -6.849    -172.169     165.345
  H       -6.601    -171.545     164.634
  H       -3.699    -171.644     167.132
  H       -4.726    -172.129     165.761
  H       -4.807    -173.028     167.301
  H      -12.437    -170.984     162.985
  H      -12.139    -172.226     164.177
  H      -12.792    -172.654     162.614

 3  4  5  6  7  8  9  10  11  12  13  23  27  28  29  30  32 0
 6-311+G(2d,p)
 ****
 34  35 0
 6-311+G(2d,p)
 ****
 1  2  14  15  16  17  18  19  20  21  22  24  25  26 0
 3-21G
 ****
 31  33  36  37  38  39  40  41  42  43  44  45  46 0
 3-21G
 ****


