%nproc=1
%NoSave
%Mem=1900MB
#P OB98/GEN NMR

erre ene a

0 1
  C      -38.133    -519.011    -330.949
  O      -38.503    -520.393    -330.932
  P      -39.348    -520.927    -329.679
  C      -41.656    -520.971    -330.880
  O      -40.861    -520.430    -329.839
  C      -43.010    -520.257    -330.947
  O      -42.873    -518.898    -331.401
  C      -44.001    -520.921    -331.895
  O      -44.670    -522.009    -331.285
  C      -44.978    -519.775    -332.141
  O      -45.898    -519.680    -331.025
  C      -44.052    -518.546    -332.171
  N      -45.441    -515.992    -336.314
  C      -46.100    -516.150    -335.099
  N      -47.291    -515.528    -334.975
  N      -45.616    -516.856    -334.101
  C      -44.406    -517.406    -334.373
  C      -43.673    -517.325    -335.530
  C      -44.218    -516.554    -336.631
  O      -43.699    -516.391    -337.725
  N      -42.501    -518.022    -335.437
  C      -42.509    -518.517    -334.203
  N      -43.662    -518.176    -333.522
  O      -38.798    -520.036    -328.468
  O      -39.176    -522.396    -329.402
  H      -46.436    -518.885    -331.188
  H      -38.883    -520.519    -327.630
  H      -45.860    -515.442    -337.044
  H      -41.718    -519.102    -333.770
  H      -44.508    -517.671    -331.706
  H      -45.585    -519.923    -333.034
  H      -47.690    -514.934    -335.673
  H      -43.520    -521.204    -332.839
  H      -47.766    -515.605    -334.077
  H      -43.436    -520.253    -329.933
  H      -41.811    -522.042    -330.710
  H      -41.107    -520.891    -331.831
  P      -44.397    -523.484    -331.863
  C      -43.251    -524.221    -329.650
  O      -43.133    -524.049    -331.048
  O      -43.810    -523.185    -333.323
  O      -45.588    -524.369    -331.926
  H      -44.052    -523.904    -333.945
  H      -42.371    -524.763    -329.289
  H      -44.146    -524.807    -329.410
  H      -43.295    -523.244    -329.152
  H      -37.577    -518.802    -331.839
  H      -37.530    -518.793    -330.092
  H      -39.015    -518.405    -330.928

 3  4  5  6  7  8  9  10  11  12  23  26  30  31 0
 6-311+G(2d,p)
 ****
 33  35  36  37  38 0
 6-311+G(2d,p)
 ****
 1  2  13  14  15  16  17  18  19  20  21  22  24  25 0
 3-21G
 ****
 27  28  29  32  34  39  40  41  42  43  44  45  46  47  48  49 0
 3-21G
 ****


