%nproc=1
%NoSave
%Mem=1900MB
#P OB98/GEN NMR

erre ene a

0 1
  C       10.583    -101.478      67.239
  O       10.643    -100.106      66.898
  H       11.289    -101.668      68.050
  H       10.858    -102.090      66.376
  H        9.577    -101.740      67.577
  P        9.660     -99.619      65.729
  C        8.768     -97.266      66.409
  O        9.751     -98.018      65.713
  C        9.429     -96.146      67.221
  O       10.195     -96.746      68.308
  C       10.411     -95.286      66.410
  O       10.431     -93.971      66.992
  C       11.733     -95.984      66.684
  O       12.821     -95.176      66.301
  C       11.556     -96.282      68.170
  N       15.109     -97.253      71.715
  C       14.312     -96.183      71.511
  N       13.381     -96.002      70.554
  C       13.295     -97.084      69.762
  C       14.035     -98.252      69.851
  C       14.986     -98.315      70.884
  N       15.806     -99.400      71.089
  N       13.667     -99.140      68.857
  C       12.722     -98.517      68.182
  N       12.471     -97.271      68.687
  O        8.205     -99.913      66.324
  O        9.865    -100.272      64.404
  H       12.712     -94.261      66.638
  H        7.886    -100.779      66.008
  H       14.441     -95.361      72.210
  H       12.198     -98.914      67.321
  H       11.662     -95.379      68.783
  H       11.811     -96.910      66.107
  H       10.152     -95.211      65.351
  H        8.649     -95.532      67.686
  H        8.226     -97.940      67.080
  H        8.067     -96.830      65.692
  H       16.473     -99.361      71.843
  H       15.737    -100.192      70.467
  P        9.128     -93.039      66.864
  C        9.311     -92.631      69.442
  O        9.046     -92.091      68.155
  O        7.943     -94.083      67.145
  O        8.939     -92.367      65.544
  H        7.135     -93.789      66.685
  H        9.211     -91.862      70.179
  H       10.307     -93.021      69.467
  H        8.615     -93.417      69.649

 6  7  8  9  10  11  12  13  14  15  25  28  32  33  34  35 0
 6-311+G(2d,p)
 ****
 36  37  40 0
 6-311+G(2d,p)
 ****
 1  2  3  4  5  16  17  18  19  20  21  22  23  24 0
 3-21G
 ****
 26  27  29  30  31  38  39 41  42  43  44  45  46  47  48 0
 3-21G
 ****


