%nproc=1
%NoSave
%Mem=1900MB
#P OB98/GEN NMR

erre ene a

0 1
  C      208.804      87.079     109.888
  O      207.813      86.407     109.143
  H      208.623      88.154     109.820
  H      209.789      86.861     109.468
  H      208.781      86.785     110.941
  P      207.556      84.855     109.428
  C      206.057      84.801     111.528
  O      207.374      84.661     111.012
  C      205.795      83.829     112.679
  O      206.074      82.480     112.249
  C      206.689      84.101     113.892
  O      206.175      85.062     114.798
  C      206.766      82.721     114.541
  O      205.684      82.517     115.464
  C      206.646      81.763     113.352
  N      209.778      77.726     113.545
  C      208.612      77.953     114.253
  N      208.266      77.000     115.145
  N      207.876      79.023     114.102
  C      208.402      79.930     113.249
  C      209.558      79.825     112.507
  C      210.328      78.604     112.623
  O      211.356      78.348     112.008
  N      209.796      80.965     111.778
  C      208.833      81.786     112.149
  N      207.920      81.176     112.976
  O      208.989      84.184     109.161
  O      206.505      84.208     108.578
  H      204.905      83.000     115.127
  H      208.867      83.278     108.825
  H      210.286      76.871     113.682
  H      208.724      82.812     111.814
  H      205.968      80.930     113.577
  H      207.691      82.612     115.112
  H      208.839      76.202     115.362
  H      207.696      84.385     113.574
  H      207.527      77.215     115.816
  H      204.732      83.866     112.948
  H      205.375      84.594     110.702
  H      205.882      85.831     111.849
  P      207.122      85.758     115.880
  C      207.977      87.712     114.350
  O      208.265      86.559     115.109
  O      207.906      84.521     116.524
  O      206.421      86.576     116.915
  H      207.498      84.256     117.369
  H      208.881      88.091     113.920
  H      207.544      88.457     114.984
  H      207.288      87.463     113.570

 6  7  8  9  10  11  12  13  14  15  26  29  33  34 0
 6-311+G(2d,p)
 ****
 36  38  39  40  41 0
 6-311+G(2d,p)
 ****
 1  2  3  4  5  16  17  18  19  20  21  22  23  24  25 0
 3-21G
 ****
 27  28  30  31  32  35  37  42  43  44  45  46  47 0
 3-21G
 ****
 48  49 0
 3-21G
 ****


