%nproc=1
%NoSave
%Mem=1900MB
#P OB98/GEN NMR

erre ene a

0 1
  C     -611.619    -559.121     145.195
  O     -612.416    -558.768     146.307
  P     -612.829    -557.231     146.460
  C     -615.440    -557.368     146.466
  O     -614.247    -557.191     147.222
  C     -616.665    -557.247     147.383
  O     -616.768    -558.412     148.238
  C     -616.591    -556.059     148.326
  O     -616.934    -554.845     147.673
  C     -617.592    -556.447     149.410
  O     -618.928    -556.135     149.021
  C     -617.384    -557.989     149.481
  N     -616.605    -558.404     150.638
  C     -617.283    -559.166     151.588
  O     -618.474    -559.459     151.476
  N     -616.550    -559.546     152.688
  C     -615.255    -559.190     152.954
  O     -614.668    -559.508     153.989
  C     -614.593    -558.349     151.934
  C     -615.293    -557.996     150.849
  O     -613.187    -556.767     144.975
  O     -611.782    -556.369     147.086
  H     -618.988    -556.319     148.061
  H     -612.909    -555.832     144.848
  H     -617.015    -560.117     153.369
  H     -613.577    -558.054     152.105
  H     -614.836    -557.373     150.093
  H     -618.364    -558.494     149.517
  H     -617.407    -555.950     150.361
  H     -615.591    -555.984     148.770
  H     -617.561    -557.193     146.761
  H     -615.433    -558.365     145.998
  H     -615.475    -556.617     145.670
  P     -616.511    -553.472     148.393
  C     -616.040    -551.849     146.388
  O     -616.943    -552.318     147.380
  O     -614.915    -553.559     148.269
  O     -617.020    -553.364     149.807
  H     -614.622    -554.013     147.468
  H     -615.421    -552.682     146.004
  H     -615.398    -551.089     146.804
  H     -616.606    -551.435     145.560
  H     -611.420    -560.172     145.218
  H     -610.695    -558.582     145.233
  H     -612.138    -558.876     144.292

 3  4  5  6  7  8  9  10  11  12  13  23  28  29  30  31  32 0
 6-311+G(2d,p)
 ****
 33  34 0
 6-311+G(2d,p)
 ****
 1  2  14  15  16  17  18  19  20  21  22  24  25  26 0
 3-21G
 ****
 27  35  36  37  38  39  40  41  42  43  44  45 0
 3-21G
 ****


