%nproc=1
%NoSave
%Mem=1900MB
#P OB98/GEN NMR

erre ene a

0 1
  C     -143.722    -184.800      94.983
  O     -143.209    -183.548      94.566
  P     -142.466    -183.468      93.148
  C     -140.029    -183.432      94.046
  O     -141.017    -184.140      93.311
  C     -138.662    -183.542      93.368
  O     -138.266    -184.938      93.299
  C     -138.640    -182.991      91.939
  O     -137.352    -182.414      91.673
  C     -138.765    -184.233      91.080
  O     -138.243    -184.018      89.769
  C     -137.979    -185.241      91.918
  N     -136.579    -189.394      89.402
  C     -135.844    -188.267      89.713
  N     -134.591    -188.207      89.207
  N     -136.292    -187.290      90.456
  C     -137.564    -187.485      90.886
  C     -138.386    -188.565      90.657
  C     -137.881    -189.634      89.821
  O     -138.489    -190.642      89.484
  N     -139.593    -188.418      91.287
  C     -139.524    -187.235      91.862
  N     -138.325    -186.615      91.617
  O     -142.142    -181.906      93.003
  O     -143.273    -183.956      91.993
  H     -137.279    -183.894      89.864
  H     -142.749    -181.501      92.357
  H     -136.191    -190.113      88.814
  H     -140.313    -186.771      92.440
  H     -136.898    -185.129      91.774
  H     -139.818    -184.520      90.985
  H     -134.212    -188.894      88.574
  H     -139.419    -182.253      91.724
  H     -134.049    -187.371      89.384
  H     -137.920    -183.029      93.992
  H     -139.964    -183.850      95.051
  H     -140.322    -182.379      94.132
  P     -137.361    -180.971      90.967
  C     -136.748    -182.074      88.690
  O     -137.637    -181.246      89.415
  O     -135.824    -180.529      91.011
  O     -138.260    -179.975      91.622
  H     -135.751    -179.557      90.991
  H     -137.292    -182.959      88.346
  H     -135.894    -182.393      89.294
  H     -136.379    -181.523      87.821
  H     -144.186    -184.694      95.941
  H     -142.923    -185.508      95.050
  H     -144.445    -185.144      94.273

 3  4  5  6  7  8  9  10  11  12  23  26  30  31 0
 6-311+G(2d,p)
 ****
 33  35  36  37  38 0
 6-311+G(2d,p)
 ****
 1  2  13  14  15  16  17  18  19  20  21  22  24  25 0
 3-21G
 ****
 27  28  29  32  34  39  40  41  42  43  44  45  46  47  48  49 0
 3-21G
 ****


