%nproc=1
%NoSave
%Mem=1900MB
#P OB98/GEN NMR

erre ene a

0 1
  C       62.172     -53.078    -217.708
  O       62.737     -53.113    -219.005
  H       61.268     -52.464    -217.734
  H       62.878     -52.632    -216.997
  H       61.905     -54.088    -217.387
  P       64.104     -53.940    -219.172
  C       65.472     -54.520    -221.295
  O       64.185     -54.264    -220.742
  C       65.412     -55.706    -222.257
  O       65.244     -56.933    -221.524
  C       64.267     -55.646    -223.263
  O       64.618     -54.837    -224.371
  C       64.148     -57.110    -223.652
  O       65.152     -57.427    -224.638
  C       64.457     -57.843    -222.334
  N       61.730     -61.860    -220.661
  C       62.739     -61.774    -221.559
  N       63.379     -60.666    -221.995
  C       62.894     -59.565    -221.402
  C       61.863     -59.504    -220.472
  C       61.272     -60.720    -220.093
  N       60.241     -60.807    -219.180
  N       61.629     -58.198    -220.082
  C       62.541     -57.494    -220.724
  N       63.304     -58.267    -221.565
  O       64.275     -55.099    -218.249
  O       65.189     -52.772    -219.001
  H       64.936     -56.917    -225.442
  H       64.897     -51.966    -219.463
  H       63.072     -62.714    -221.984
  H       62.704     -56.427    -220.605
  H       65.069     -58.743    -222.503
  H       63.181     -57.354    -224.097
  H       63.329     -55.323    -222.791
  H       66.380     -55.764    -222.776
  H       66.193     -54.725    -220.494
  H       59.757     -61.687    -219.119
  H       59.822     -59.949    -218.863
  H       65.790     -53.614    -221.823
  P       63.517     -54.383    -225.448
  C       62.963     -52.173    -226.646
  O       63.784     -52.815    -225.675
  O       62.117     -54.754    -225.097
  O       64.013     -55.033    -226.820
  H       63.280     -55.039    -227.469
  H       63.229     -51.139    -226.711
  H       61.936     -52.260    -226.358
  H       63.107     -52.638    -227.599

 6  7  8  9  10  11  12  13  14  15  25  28  32  33  34  35 0
 6-311+G(2d,p)
 ****
 36  39  40 0
 6-311+G(2d,p)
 ****
 1  2  3  4  5  16  17  18  19  20  21  22  23  24 0
 3-21G
 ****
 26  27  29  30  31  37  38  41  42  43  44  45  46  47 0
 3-21G
 ****
 48 0
 3-21G
 ****


