%nproc=1
%NoSave
%Mem=1900MB
#P OB98/GEN NMR

erre ene a

0 1
  C       45.080    -250.774     114.825
  O       45.749    -249.530     114.713
  H       45.231    -251.159     115.838
  H       45.493    -251.493     114.109
  H       44.009    -250.641     114.654
  P       45.682    -248.807     113.281
  C       45.612    -246.354     114.104
  O       44.879    -247.444     113.559
  C       44.655    -245.304     114.674
  O       43.928    -245.847     115.788
  C       45.342    -244.042     115.186
  O       45.594    -243.140     114.114
  C       44.277    -243.497     116.135
  O       43.271    -242.787     115.378
  C       43.673    -244.775     116.740
  N       42.645    -245.293     121.745
  C       41.950    -244.714     120.741
  N       42.309    -244.560     119.449
  C       43.521    -245.095     119.220
  C       44.344    -245.722     120.148
  C       43.862    -245.817     121.464
  N       44.575    -246.405     122.493
  N       45.519    -246.141     119.554
  C       45.375    -245.838     118.280
  N       44.200    -245.165     118.033
  O       45.179    -249.652     112.152
  O       47.192    -248.295     113.125
  H       43.735    -242.071     114.899
  H       47.526    -247.950     113.976
  H       40.970    -244.310     121.017
  H       46.077    -246.091     117.495
  H       42.582    -244.691     116.855
  H       44.684    -242.790     116.857
  H       46.251    -244.270     115.756
  H       43.916    -245.058     113.895
  H       46.244    -245.895     113.329
  H       44.242    -246.259     123.428
  H       45.530    -246.677     122.304
  H       46.260    -246.749     114.891
  P       47.046    -243.037     113.442
  C       46.162    -242.900     111.026
  O       46.885    -243.682     111.984
  O       48.157    -243.589     114.278
  O       47.222    -241.475     113.123
  H       48.166    -241.273     112.963
  H       46.118    -243.427     110.096
  H       46.659    -241.963     110.882
  H       45.169    -242.726     111.384

 6  7  8  9  10  11  12  13  14  15  25  28  32  33  34  35 0
 6-311+G(2d,p)
 ****
 36  39  40 0
 6-311+G(2d,p)
 ****
 1  2  3  4  5  16  17  18  19  20  21  22  23  24 0
 3-21G
 ****
 26  27  29  30  31  37  38  41  42  43  44  45  46  47 0
 3-21G
 ****
 48 0
 3-21G
 ****


