%nproc=1
%NoSave
%Mem=1900MB
#P OB98/GEN NMR

erre ene a

0 1
  C     -235.351     321.737    -139.041
  O     -236.636     322.221    -139.380
  H     -235.102     320.912    -139.712
  H     -235.339     321.368    -138.011
  H     -234.601     322.524    -139.163
  P     -237.254     323.416    -138.511
  C     -237.170     325.194    -140.383
  O     -236.656     324.771    -139.127
  C     -236.725     326.621    -140.683
  O     -237.161     327.017    -141.999
  C     -237.277     327.668    -139.716
  O     -236.507     327.702    -138.525
  C     -237.118     328.929    -140.549
  O     -235.739     329.340    -140.545
  C     -237.512     328.429    -141.953
  N     -240.878     330.641    -145.040
  C     -239.515     330.845    -144.922
  N     -238.980     331.794    -145.719
  N     -238.750     330.187    -144.091
  C     -239.433     329.319    -143.308
  C     -240.781     329.043    -143.318
  C     -241.606     329.732    -144.290
  O     -242.812     329.561    -144.444
  N     -241.124     328.174    -142.315
  C     -239.977     327.885    -141.732
  N     -238.917     328.561    -142.294
  O     -237.094     323.299    -137.026
  O     -238.793     323.465    -138.948
  H     -235.705     330.236    -140.928
  H     -239.344     322.915    -138.361
  H     -241.414     331.185    -145.694
  H     -239.852     327.192    -140.909
  H     -236.946     328.935    -142.742
  H     -237.707     329.764    -140.169
  H     -239.536     332.434    -146.268
  H     -238.340     327.505    -139.514
  H     -237.995     331.998    -145.605
  H     -235.629     326.636    -140.693
  H     -238.260     325.135    -140.329
  H     -236.825     324.526    -141.181
  P     -236.960     328.578    -137.258
  C     -238.333     326.626    -136.262
  O     -238.351     327.943    -136.778
  O     -236.993     330.049    -137.494
  O     -235.969     328.125    -136.091
  H     -235.112     328.619    -136.098
  H     -239.325     326.338    -135.985
  H     -237.697     326.588    -135.402
  H     -237.963     325.955    -137.009

 6  7  8  9  10  11  12  13  14  15  26  29  33  34 0
 6-311+G(2d,p)
 ****
 36  38  39  40  41 0
 6-311+G(2d,p)
 ****
 1  2  3  4  5  16  17  18  19  20  21  22  23  24  25 0
 3-21G
 ****
 27  28  30  31  32  35  37  42  43  44  45  46  47 0
 3-21G
 ****
 48  49 0
 3-21G
 ****


