%nproc=1
%NoSave
%Mem=1900MB
#P OB98/GEN NMR

erre ene a

0 1
  C     1460.302       3.331    -154.971
  O     1461.341       2.924    -154.093
  P     1462.854       2.959    -154.672
  C     1463.312       0.835    -153.259
  O     1463.391       1.443    -154.527
  C     1463.877      -0.603    -153.309
  O     1462.934      -1.452    -153.953
  C     1465.178      -0.723    -154.097
  O     1466.305      -0.330    -153.345
  C     1465.182      -2.220    -154.393
  O     1465.727      -2.934    -153.258
  C     1463.700      -2.541    -154.583
  N     1464.038      -5.231    -158.866
  C     1464.606      -5.472    -157.632
  N     1465.318      -6.599    -157.489
  N     1464.442      -4.665    -156.583
  C     1463.661      -3.599    -156.855
  C     1463.042      -3.248    -158.053
  C     1463.265      -4.137    -159.200
  O     1462.859      -3.934    -160.332
  N     1462.331      -2.098    -157.917
  C     1462.460      -1.761    -156.657
  N     1463.288      -2.639    -155.973
  O     1463.660       3.752    -153.539
  O     1462.990       3.609    -156.018
  H     1465.871      -3.860    -153.541
  H     1464.443       4.162    -153.926
  H     1464.180      -5.891    -159.623
  H     1461.971      -0.923    -156.186
  H     1463.417      -3.458    -154.067
  H     1465.812      -2.478    -155.239
  H     1465.366      -7.312    -158.200
  H     1465.104      -0.171    -155.058
  H     1465.708      -6.823    -156.583
  H     1464.023      -0.953    -152.287
  H     1462.271       0.768    -152.930
  H     1463.866       1.428    -152.542
  P     1467.451       0.492    -154.127
  C     1469.149      -0.297    -152.324
  O     1468.825      -0.211    -153.688
  O     1467.471       1.901    -153.363
  O     1467.202       0.634    -155.585
  H     1467.804       2.610    -153.961
  H     1468.260      -0.473    -151.713
  H     1469.622       0.647    -152.008
  H     1469.846      -1.134    -152.184
  H     1459.361       3.261    -154.467
  H     1460.294       2.696    -155.832
  H     1460.469       4.343    -155.276

 3  4  5  6  7  8  9  10  11  12  23  26  30  31  33  0
 6-311+G(2d,p)
 ****
 35  36  37  38 0
 6-311+G(2d,p)
 ****
 1  2  13  14  15  16  17  18  19  20  21  22  24  25  27  28  29 0
 3-21G
 ****
 32  34  39  40  41  42  43  44  45  46  47  48  49 0
 3-21G
 ****


