%nproc=1
%NoSave
%Mem=1900MB
#P OB98/GEN NMR

erre ene a

0 1
  C      168.132     729.713     235.244
  O      167.228     730.762     234.882
  P      167.515     732.254     235.376
  C      168.391     733.171     233.124
  O      168.684     732.897     234.491
  C      169.684     733.528     232.374
  O      170.632     732.433     232.403
  C      169.450     733.801     230.893
  O      168.746     734.975     230.567
  C      170.846     733.644     230.312
  O      171.620     734.829     230.465
  C      171.425     732.502     231.195
  N      171.449     731.213     230.505
  C      172.418     731.064     229.515
  O      173.187     731.973     229.185
  N      172.443     729.858     228.886
  C      171.606     728.813     229.107
  O      171.661     727.753     228.501
  C      170.586     729.035     230.156
  C      170.557     730.204     230.798
  O      167.658     732.431     236.853
  O      166.214     733.054     234.853
  H      171.826     734.929     231.412
  H      165.950     733.682     235.552
  H      173.151     729.733     228.165
  H      169.895     728.221     230.363
  H      169.815     730.379     231.570
  H      172.448     732.740     231.510
  H      170.812     733.410     229.243
  H      168.845     732.971     230.496
  H      170.148     734.378     232.874
  H      167.675     733.985     233.061
  H      167.904     732.293     232.683
  P      167.209     734.983     230.099
  C      166.292     736.443     232.039
  O      166.294     735.189     231.402
  O      166.789     733.940     229.121
  O      167.099     736.422     229.392
  H      166.464     736.362     228.662
  H      165.624     736.399     232.907
  H      165.932     737.219     231.365
  H      167.302     736.695     232.380
  H      167.788     728.788     234.831
  H      168.177     729.633     236.310
  H      169.106     729.934     234.861

 3  4  5  6  7  8  9  10  11  12  13  23  28  29  30  31  32 0
 6-311+G(2d,p)
 ****
 33  34 0
 6-311+G(2d,p)
 ****
 1  2  14  15  16  17  18  19  20  21  22  24  25  26  27 0
 3-21G
 ****
 35  36  37  38  39  40  41  42  43  44  45 0
 3-21G
 ****


