%nproc=1
%NoSave
%Mem=1900MB
#P OB98/GEN NMR

erre ene a

0 1
  C     -278.224     480.544    -301.524
  O     -279.445     481.092    -301.069
  H     -277.773     479.972    -300.707
  H     -277.526     481.338    -301.823
  H     -278.404     479.871    -302.365
  P     -280.176     482.186    -301.993
  C     -282.515     482.642    -300.986
  O     -281.134     483.014    -301.002
  C     -283.226     483.248    -299.772
  O     -282.858     482.534    -298.571
  C     -282.855     484.702    -299.503
  O     -283.341     485.610    -300.476
  C     -283.252     484.872    -298.046
  O     -284.624     485.222    -297.866
  C     -282.984     483.455    -297.469
  N     -281.821     483.425    -296.592
  C     -282.054     483.784    -295.265
  O     -283.158     484.125    -294.829
  N     -280.961     483.770    -294.443
  C     -279.672     483.495    -294.829
  O     -278.720     483.542    -294.052
  C     -279.488     483.153    -296.245
  C     -280.561     483.135    -297.055
  O     -280.880     481.647    -303.210
  O     -279.013     483.231    -302.336
  H     -284.769     485.331    -296.908
  H     -279.259     483.801    -303.107
  H     -281.098     484.013    -293.475
  H     -278.483     482.934    -296.594
  H     -280.449     482.887    -298.107
  H     -283.855     483.120    -296.881
  H     -282.660     485.658    -297.559
  H     -281.762     484.778    -299.538
  H     -284.309     483.136    -299.915
  H     -282.562     481.550    -300.921
  H     -282.997     482.968    -301.911
  P     -283.348     487.193    -300.271
  C     -282.588     488.111    -302.581
  O     -283.670     487.886    -301.690
  O     -282.247     487.767    -299.424
  O     -284.727     487.407    -299.464
  H     -284.597     488.147    -298.837
  H     -282.952     488.574    -303.474
  H     -282.127     487.177    -302.825
  H     -281.869     488.752    -302.115

 6  7  8  9  10  11  12  13  14  15  16  26  31  32  33  34  35 0
 6-311+G(2d,p)
 ****
 36  37 0
 6-311+G(2d,p)
 ****
 1  2  3  4  5  17  18  19  20  21  22  23  24  25 0
 3-21G
 ****
 27  28  29  30  38  39  40  41  42  43  44  45 0
 3-21G
 ****


