%nproc=1
%NoSave
%Mem=1900MB
#P OB98/GEN NMR

erre ene a

0 1
  C     -168.715    -276.004    -147.324
  O     -167.570    -275.440    -146.713
  H     -168.704    -277.086    -147.157
  H     -168.709    -275.817    -148.399
  H     -169.626    -275.590    -146.879
  P     -167.353    -273.858    -146.821
  C     -165.888    -273.889    -144.694
  O     -165.968    -273.549    -146.073
  C     -164.431    -273.915    -144.247
  O     -163.703    -274.937    -144.960
  C     -163.684    -272.604    -144.492
  O     -163.969    -271.671    -143.465
  C     -162.241    -273.101    -144.466
  O     -161.835    -273.327    -143.106
  C     -162.360    -274.440    -145.219
  N     -159.205    -273.038    -148.932
  C     -159.070    -272.922    -147.564
  N     -157.951    -272.305    -147.121
  N     -159.958    -273.352    -146.704
  C     -161.055    -273.881    -147.294
  C     -161.316    -274.035    -148.634
  C     -160.297    -273.608    -149.575
  O     -160.369    -273.706    -150.794
  N     -162.566    -274.557    -148.856
  C     -163.048    -274.751    -147.644
  N     -162.175    -274.342    -146.658
  O     -168.493    -272.998    -146.359
  O     -167.003    -273.618    -148.363
  H     -162.248    -272.620    -142.574
  H     -167.806    -273.415    -148.882
  H     -158.491    -272.669    -149.540
  H     -164.015    -275.185    -147.422
  H     -161.657    -275.190    -144.847
  H     -161.538    -272.397    -144.904
  H     -157.390    -271.717    -147.726
  H     -163.889    -272.200    -145.496
  H     -157.856    -272.169    -146.124
  H     -164.408    -274.188    -143.182
  H     -166.342    -274.877    -144.573
  H     -166.444    -273.170    -144.092
  P     -164.306    -270.137    -143.808
  C     -166.172    -270.191    -142.018
  O     -164.981    -269.557    -142.476
  O     -165.105    -269.934    -145.055
  O     -162.883    -269.411    -143.823
  H     -162.439    -269.426    -144.711
  H     -166.514    -269.707    -141.127
  H     -165.970    -271.221    -141.810
  H     -166.927    -270.121    -142.773

 6  7  8  9  10  11  12  13  14  15  26  29  33  34 0
 6-311+G(2d,p)
 ****
 36  38  39  40  41 0
 6-311+G(2d,p)
 ****
 1  2  3  4  5  16  17  18  19  20  21  22  23  24  25 0
 3-21G
 ****
 27  28  30  31  32  35  37  42  43  44  45  46  47 0
 3-21G
 ****
 48  49 0
 3-21G
 ****


