%nproc=1
%NoSave
%Mem=1900MB
#P OB98/GEN NMR

erre ene a

0 1
  C      -30.703     435.867    -435.881
  O      -30.769     434.781    -436.781
  H      -29.905     436.543    -436.203
  H      -30.474     435.513    -434.871
  H      -31.649     436.413    -435.879
  P      -31.809     433.611    -436.431
  C      -30.876     431.633    -435.024
  O      -31.346     432.975    -435.033
  C      -29.407     431.606    -435.446
  O      -28.680     432.643    -434.750
  C      -28.688     430.307    -435.106
  O      -28.973     429.266    -436.023
  C      -27.239     430.755    -435.168
  O      -26.731     430.721    -436.510
  C      -27.311     432.198    -434.636
  N      -26.811     432.296    -433.267
  C      -25.436     432.491    -433.138
  O      -24.673     432.585    -434.094
  N      -24.960     432.543    -431.854
  C      -25.697     432.371    -430.721
  O      -25.196     432.369    -429.601
  C      -27.140     432.147    -430.917
  C      -27.622     432.118    -432.165
  O      -31.456     432.476    -437.503
  O      -33.249     434.011    -436.491
  H      -32.153     432.442    -438.188
  H      -27.345     431.258    -437.046
  H      -23.968     432.683    -431.740
  H      -27.754     432.002    -430.038
  H      -28.681     431.944    -432.338
  H      -26.710     432.868    -435.264
  H      -26.605     430.109    -434.565
  H      -28.923     430.002    -434.077
  H      -29.348     431.806    -436.522
  H      -31.459     431.035    -435.732
  H      -31.004     431.218    -434.022
  P      -28.709     427.754    -435.545
  C      -26.650     426.942    -436.966
  O      -27.140     427.498    -435.759
  O      -29.418     426.946    -436.729
  O      -29.235     427.471    -434.178
  H      -29.425     427.453    -437.561
  H      -25.585     426.852    -436.911
  H      -26.912     427.579    -437.785
  H      -27.083     425.975    -437.115

 6  7  8  9  10  11  12  13  14  15  16  27  31  32  33  34  35 0
 6-311+G(2d,p)
 ****
 36  37 0
 6-311+G(2d,p)
 ****
 1  2  3  4  5  17  18  19  20  21  22  23  24  25 0
 3-21G
 ****
 26  28  29  30  38  39  40  41  42  43  44  45 0
 3-21G
 ****


