%nproc=1
%NoSave
%Mem=1900MB
#P OB98/GEN NMR

erre ene a

0 1
  C       59.029      15.242    -131.308
  O       59.719      14.079    -130.901
  H       59.723      16.087    -131.280
  H       58.196      15.451    -130.632
  H       58.660      15.129    -132.332
  P       58.908      12.702    -130.790
  C       58.386      12.190    -133.265
  O       59.200      11.882    -132.139
  C       57.868      10.899    -133.911
  O       56.951      11.272    -134.969
  C       58.995      10.055    -134.524
  O       58.993       8.703    -134.070
  C       58.838      10.298    -136.020
  O       59.326       9.257    -136.841
  C       57.340      10.582    -136.171
  N       57.003      11.373    -137.352
  C       56.010      10.878    -138.192
  O       55.376       9.842    -138.004
  N       55.737      11.641    -139.298
  C       56.348      12.809    -139.641
  O       56.055      13.451    -140.642
  C       57.404      13.270    -138.727
  C       57.680      12.541    -137.643
  O       57.463      12.829    -130.438
  O       59.710      11.868    -129.683
  H       60.292       9.190    -136.695
  H       59.229      11.903    -128.836
  H       55.010      11.296    -139.907
  H       57.916      14.189    -138.974
  H       58.454      12.853    -136.946
  H       56.777       9.650    -136.225
  H       59.402      11.202    -136.282
  H       59.977      10.426    -134.206
  H       57.299      10.334    -133.164
  H       58.994      12.753    -133.979
  H       57.539      12.810    -132.949
  P       60.168       8.026    -133.229
  C       59.298       8.121    -130.758
  O       59.526       7.351    -131.928
  O       61.383       8.866    -133.025
  O       60.595       6.764    -134.140
  H       61.556       6.634    -134.003
  H       58.867       7.500    -130.001
  H       58.629       8.924    -130.985
  H       60.227       8.519    -130.406

 6  7  8  9  10  11  12  13  14  15  16  26  31  32  33  34  35 0
 6-311+G(2d,p)
 ****
 36  37 0
 6-311+G(2d,p)
 ****
 1  2  3  4  5  17  18  19  20  21  22  23  24  25 0
 3-21G
 ****
 27  28  29  30  38  39  40  41  42  43  44  45 0
 3-21G
 ****


