%nproc=1
%NoSave
%Mem=1900MB
#P OB98/GEN NMR

erre ene a

0 1
  C      -16.458     174.950      32.502
  O      -16.733     176.289      32.144
  H      -16.072     174.426      31.623
  H      -17.376     174.456      32.831
  H      -15.707     174.913      33.295
  P      -17.138     177.285      33.339
  C      -15.782     179.406      32.598
  O      -17.036     178.760      32.719
  C      -15.205     179.197      31.198
  O      -16.164     179.675      30.223
  C      -13.888     179.934      30.956
  O      -13.052     179.116      30.136
  C      -14.309     181.176      30.191
  O      -13.239     181.713      29.416
  C      -15.508     180.651      29.389
  N      -16.424     181.720      28.997
  C      -16.036     182.516      27.915
  O      -14.958     182.316      27.355
  N      -16.853     183.545      27.522
  C      -17.932     183.803      28.194
  N      -18.688     184.850      27.767
  C      -18.353     183.023      29.374
  C      -17.568     182.002      29.709
  O      -15.857     177.183      34.294
  O      -18.433     176.953      34.000
  H      -13.544     182.561      29.024
  H      -15.013     177.171      33.813
  H      -19.253     183.287      29.910
  H      -17.807     181.371      30.558
  H      -15.168     180.138      28.480
  H      -14.636     181.953      30.893
  H      -13.359     180.190      31.874
  H      -15.094     178.120      31.026
  H      -18.354     185.371      26.966
  H      -15.081     179.016      33.342
  H      -19.517     185.172      28.244
  H      -15.929     180.473      32.793
  P      -12.085     178.042      30.827
  C      -11.720     176.425      28.853
  O      -11.136     177.398      29.705
  O      -12.747     177.061      31.735
  O      -11.058     178.967      31.649
  H      -10.869     178.523      32.499
  H      -10.988     176.077      28.155
  H      -12.540     176.862      28.322
  H      -12.073     175.603      29.440

 6  7  8  9  10  11  12  13  14  15  16  26  30  31  32  33  35 0
 6-311+G(2d,p)
 ****
 37  38 0
 6-311+G(2d,p)
 ****
 1  2  3  4  5  17  18  19  20  21  22  23  24  25 0
 3-21G
 ****
 27  28  29  34  36  39  40  41  42  43  44  45  46 0
 3-21G
 ****


