%nproc=1
%NoSave
%Mem=1900MB
#P OB98/GEN NMR

erre ene a

0 1
  C     -105.716     258.764      56.503
  O     -105.923     260.115      56.088
  P     -104.980     261.267      56.682
  C     -106.338     262.052      58.726
  O     -105.197     261.339      58.272
  C     -106.534     261.863      60.238
  O     -107.582     262.749      60.733
  C     -106.947     260.429      60.603
  O     -106.410     260.059      61.882
  C     -108.453     260.539      60.747
  O     -108.987     259.469      61.528
  C     -108.578     261.926      61.375
  N     -112.204     264.797      63.581
  C     -110.952     264.469      63.976
  N     -110.036     263.719      63.325
  C     -110.516     263.303      62.141
  C     -111.766     263.568      61.600
  C     -112.637     264.347      62.380
  N     -113.921     264.656      61.991
  N     -111.905     262.964      60.365
  C     -110.775     262.310      60.188
  N     -109.891     262.511      61.215
  O     -105.040     262.580      55.977
  O     -103.516     260.620      56.566
  H     -108.505     259.459      62.373
  H     -102.889     261.302      56.257
  H     -110.649     264.857      64.945
  H     -110.551     261.671      59.344
  H     -108.351     261.907      62.446
  H     -108.924     260.507      59.755
  H     -106.656     259.673      59.867
  H     -105.610     262.141      60.756
  H     -107.225     261.708      58.189
  H     -114.510     265.121      62.664
  H     -114.305     264.203      61.174
  H     -106.225     263.113      58.470
  P     -105.209     258.984      61.860
  C     -106.609     256.822      61.418
  O     -105.713     257.788      60.920
  O     -104.729     258.599      63.221
  O     -104.108     259.741      60.981
  H     -104.432     260.099      60.136
  H     -106.927     256.175      60.596
  H     -107.496     257.294      61.850
  H     -106.115     256.202      62.174
  H     -106.425     258.128      56.015
  H     -105.843     258.693      57.563
  H     -104.724     258.459      56.242

 3  4  5  6  7  8  9  10  11  12  22  25  29  30  31  32 0
 6-311+G(2d,p)
 ****
 33  36  37 0
 6-311+G(2d,p)
 ****
 1  2  13  14  15  16  17  18  19  20  21  23  24  26 0
 3-21G
 ****
 27  28  34  35  38  39  40  41  42  43  44  45  46  47  48 0
 3-21G
 ****


