%nproc=1
%NoSave
%Mem=1900MB
#P OB98/GEN NMR

erre ene a

0 1
  C     -334.576    -356.778    -889.523
  O     -335.285    -355.954    -888.610
  H     -335.282    -357.187    -890.250
  H     -334.099    -357.612    -889.003
  H     -333.820    -356.193    -890.052
  P     -334.489    -355.363    -887.352
  C     -336.687    -355.936    -886.103
  O     -335.613    -355.013    -886.258
  C     -337.595    -355.498    -884.958
  O     -336.907    -355.623    -883.692
  C     -338.026    -354.037    -885.050
  O     -339.019    -353.867    -886.032
  C     -338.443    -353.768    -883.628
  O     -339.764    -354.262    -883.376
  C     -337.382    -354.570    -882.825
  N     -336.292    -353.730    -882.361
  C     -336.600    -352.857    -881.302
  O     -337.739    -352.822    -880.833
  N     -335.602    -352.020    -880.839
  C     -334.415    -352.082    -881.348
  N     -333.486    -351.230    -880.842
  C     -334.046    -353.001    -882.457
  C     -335.021    -353.789    -882.900
  O     -333.522    -354.252    -887.618
  O     -333.763    -356.648    -886.726
  H     -339.702    -355.250    -883.426
  H     -332.883    -356.773    -887.124
  H     -333.035    -353.014    -882.844
  H     -334.832    -354.490    -883.702
  H     -337.850    -355.055    -881.958
  H     -338.449    -352.698    -883.401
  H     -337.147    -353.400    -885.273
  H     -338.470    -356.162    -884.938
  H     -333.772    -350.602    -880.109
  H     -336.241    -356.912    -885.877
  H     -332.509    -351.235    -881.107
  H     -337.261    -356.024    -887.027
  P     -338.712    -353.069    -887.394
  C     -340.943    -351.767    -887.351
  O     -340.145    -352.735    -888.035
  O     -337.729    -353.718    -888.316
  O     -338.220    -351.628    -886.863
  H     -337.299    -351.681    -886.490
  H     -341.867    -351.633    -887.873
  H     -340.418    -350.836    -887.311
  H     -341.141    -352.107    -886.356

 6  7  8  9  10  11  12  13  14  15  16  26  30  31  32  33  35 0
 6-311+G(2d,p)
 ****
 37  38 0
 6-311+G(2d,p)
 ****
 1  2  3  4  5  17  18  19  20  21  22  23  24  25 0
 3-21G
 ****
 27  28  29  34  36  39  40  41  42  43  44  45  46 0
 3-21G
 ****


