%nproc=1
%NoSave
%Mem=1900MB
#P OB98/GEN NMR

erre ene a

0 1
  C      -63.160      87.832     636.753
  O      -62.034      88.007     635.923
  H      -62.901      87.229     637.626
  H      -63.496      88.818     637.101
  H      -63.972      87.360     636.192
  P      -61.351      86.674     635.342
  C      -59.247      87.058     636.814
  O      -60.284      86.158     636.439
  C      -58.507      86.512     638.023
  O      -57.816      85.279     637.613
  C      -57.427      87.472     638.614
  O      -57.717      87.724     639.993
  C      -56.123      86.703     638.525
  O      -55.297      86.848     639.678
  C      -56.578      85.239     638.353
  N      -52.795      81.896     638.981
  C      -53.835      82.223     639.767
  N      -54.874      83.040     639.500
  C      -54.775      83.527     638.249
  C      -53.789      83.272     637.312
  C      -52.736      82.425     637.718
  N      -51.644      82.141     636.924
  N      -54.012      83.982     636.144
  C      -55.114      84.671     636.381
  N      -55.591      84.456     637.650
  O      -60.428      87.219     634.150
  O      -62.312      85.635     634.861
  H      -55.831      86.566     640.447
  H      -60.581      86.677     633.346
  H      -53.830      81.763     640.758
  H      -55.588      85.378     635.705
  H      -56.778      84.758     639.330
  H      -55.568      87.033     637.645
  H      -57.362      88.409     638.058
  H      -59.220      86.230     638.792
  H      -59.675      88.033     637.069
  H      -50.895      81.616     637.350
  H      -51.552      82.610     636.039
  H      -58.577      87.198     635.954
  P      -58.297      89.185     640.353
  C      -56.010      90.416     640.647
  O      -57.213      90.259     639.871
  O      -58.177      89.230     641.949
  O      -59.694      89.412     639.882
  H      -58.855      89.839     642.317
  H      -55.392      91.165     640.199
  H      -55.480      89.487     640.676
  H      -56.264      90.712     641.643

 6  7  8  9  10  11  12  13  14  15  25  28  32  33  34  35 0
 6-311+G(2d,p)
 ****
 36  39  40 0
 6-311+G(2d,p)
 ****
 1  2  3  4  5  16  17  18  19  20  21  22  23  24 0
 3-21G
 ****
 26  27  29  30  31  37  38  41  42  43  44  45  46  47  48 0
 3-21G
 ****


