%nproc=1
%NoSave
%Mem=1900MB
#P OB98/GEN NMR

erre ene a

0 1
  C     1900.287     -20.577    1278.659
  O     1900.033     -19.215    1278.373
  H     1900.266     -20.727    1279.753
  H     1901.293     -20.845    1278.301
  H     1899.529     -21.217    1278.191
  P     1900.123     -18.761    1276.826
  C     1897.624     -18.163    1276.430
  O     1898.696     -19.075    1276.170
  C     1897.420     -17.229    1275.230
  O     1897.063     -18.053    1274.050
  C     1896.288     -16.254    1275.384
  O     1896.647     -15.115    1276.173
  C     1896.028     -15.872    1273.918
  O     1896.936     -14.845    1273.476
  C     1896.287     -17.203    1273.162
  N     1895.039     -17.837    1272.743
  C     1894.326     -17.184    1271.768
  O     1894.711     -16.101    1271.284
  N     1893.132     -17.753    1271.432
  C     1892.600     -18.896    1271.964
  O     1891.489     -19.311    1271.635
  C     1893.391     -19.543    1272.992
  C     1894.570     -19.006    1273.384
  O     1901.076     -19.870    1276.175
  O     1900.628     -17.384    1276.607
  H     1901.973     -19.483    1276.022
  H     1896.620     -14.011    1273.893
  H     1892.602     -17.291    1270.713
  H     1892.998     -20.420    1273.459
  H     1895.161     -19.482    1274.137
  H     1896.898     -17.027    1272.273
  H     1895.020     -15.511    1273.796
  H     1895.389     -16.743    1275.799
  H     1898.376     -16.743    1275.013
  H     1897.844     -17.524    1277.300
  H     1896.713     -18.719    1276.631
  P     1895.687     -14.693    1277.369
  C     1896.630     -16.382    1279.199
  O     1895.551     -16.010    1278.331
  O     1894.267     -14.626    1276.603
  O     1896.119     -13.433    1278.066
  H     1894.243     -15.219    1275.822
  H     1896.361     -17.261    1279.746
  H     1896.829     -15.584    1279.883
  H     1897.505     -16.579    1278.616

 6  7  8  9  10  11  12  13  14  15  16  27  31  32  33  34  35 0
 6-311+G(2d,p)
 ****
 36  37 0
 6-311+G(2d,p)
 ****
 1  2  3  4  5  17  18  19  20  21  22  23  24  25 0
 3-21G
 ****
 26  28  29  30  38  39  40  41  42  43  44  45 0
 3-21G
 ****


