%nproc=1
%NoSave
%Mem=1900MB
#P OB98/GEN NMR

erre ene a

0 1
  C      328.701     -74.658     139.966
  O      329.972     -74.134     140.276
  P      331.213     -74.167     139.278
  C      331.767     -71.692     138.641
  O      331.109     -72.904     138.295
  C      332.485     -71.089     137.426
  O      333.550     -71.988     137.027
  C      331.539     -70.954     136.221
  O      331.692     -69.740     135.497
  C      331.772     -72.253     135.461
  O      331.371     -72.194     134.100
  C      333.257     -72.497     135.710
  N      334.871     -76.283     132.732
  C      334.792     -74.933     132.454
  N      334.995     -74.580     131.167
  N      334.502     -74.027     133.352
  C      334.213     -74.544     134.568
  C      334.259     -75.861     134.962
  C      334.614     -76.847     133.970
  O      334.586     -78.065     134.143
  N      333.837     -76.023     136.255
  C      333.499     -74.807     136.636
  N      333.678     -73.881     135.634
  O      331.561     -75.492     138.685
  O      332.425     -73.734     140.252
  H      331.459     -73.092     133.729
  H      333.222     -74.214     139.950
  H      335.022     -76.943     131.977
  H      333.093     -74.546     137.606
  H      333.878     -71.953     134.994
  H      331.162     -73.027     135.938
  H      335.074     -75.265     130.431
  H      330.497     -70.920     136.554
  H      334.699     -73.646     130.894
  H      332.940     -70.135     137.712
  H      332.493     -71.948     139.419
  H      331.058     -70.978     139.066
  P      330.618     -68.964     134.607
  C      329.362     -67.716     136.462
  O      329.298     -68.735     135.482
  O      330.139     -70.028     133.513
  O      331.136     -67.734     133.936
  H      330.024     -69.582     132.653
  H      328.526     -67.845     137.156
  H      329.276     -66.740     135.981
  H      330.301     -67.773     137.021
  H      328.043     -74.514     140.798
  H      328.788     -75.704     139.757
  H      328.307     -74.154     139.108

 3  4  5  6  7  8  9  10  11  12  23  26  30  31 0
 6-311+G(2d,p)
 ****
 33  35  36  37  38 0
 6-311+G(2d,p)
 ****
 1  2  13  14  15  16  17  18  19  20  21  22  24  25 0
 3-21G
 ****
 27  28  29  32  34  39  40  41  42  43  44  45  46  47  48  49 0
 3-21G
 ****


