%nproc=1
%NoSave
%Mem=1900MB
#P OB98/GEN NMR

erre ene a

0 1
  C      264.089     223.608    -163.157
  O      264.974     224.260    -162.250
  P      264.988     223.759    -160.725
  C      267.547     223.520    -160.367
  O      266.302     222.856    -160.569
  C      268.517     222.621    -159.605
  O      268.925     221.502    -160.429
  C      269.813     223.298    -159.168
  O      269.646     224.046    -157.966
  C      270.700     222.101    -158.920
  O      270.401     221.513    -157.637
  C      270.283     221.143    -160.049
  N      272.136     218.611    -164.099
  C      271.352     218.220    -163.073
  N      270.902     218.944    -162.025
  C      271.392     220.201    -162.084
  C      272.243     220.742    -163.049
  C      272.604     219.888    -164.108
  N      273.390     220.287    -165.164
  N      272.524     222.063    -162.774
  C      271.868     222.320    -161.660
  N      271.156     221.233    -161.209
  O      263.796     222.675    -160.682
  O      264.803     224.833    -159.704
  H      269.465     221.233    -157.659
  H      263.464     222.582    -159.774
  H      271.019     217.185    -163.096
  H      271.850     223.281    -161.159
  H      270.266     220.094    -159.727
  H      271.770     222.357    -158.904
  H      270.228     223.914    -159.976
  H      267.988     222.209    -158.729
  H      267.378     224.428    -159.789
  H      273.454     219.684    -165.972
  H      273.562     221.293    -165.265
  H      267.977     223.790    -161.349
  P      268.930     225.471    -158.093
  C      267.149     225.485    -156.195
  O      267.428     225.256    -157.564
  O      268.757     225.661    -159.678
  O      269.684     226.600    -157.466
  H      268.722     226.608    -159.912
  H      266.064     225.588    -156.071
  H      267.624     226.397    -155.849
  H      267.481     224.637    -155.592
  H      264.189     224.045    -164.129
  H      263.081     223.722    -162.816
  H      264.333     222.567    -163.207

 3  4  5  6  7  8  9  10  11  12  22  25  29  30  31  32 0
 6-311+G(2d,p)
 ****
 33  36  37 0
 6-311+G(2d,p)
 ****
 1  2  13  14  15  16  17  18  19  20  21  23  24  26 0
 3-21G
 ****
 27  28  34  35  38  39  40  41  42  43  44  45  46  47  48 0
 3-21G
 ****


