%nproc=1
%NoSave
%Mem=1900MB
#P OB98/GEN NMR

erre ene a

0 1
  C        2.584      35.876     -50.596
  O        3.460      36.988     -50.467
  P        2.935      38.413     -50.994
  C        2.153      39.272     -53.317
  O        2.880      38.286     -52.593
  C        2.769      39.487     -54.696
  O        4.066      40.102     -54.571
  C        2.994      38.212     -55.494
  O        1.815      37.772     -56.147
  C        4.018      38.686     -56.511
  O        3.361      39.415     -57.564
  C        4.885      39.633     -55.675
  N        9.940      40.101     -55.064
  C        9.035      40.876     -55.697
  N        7.707      40.678     -55.825
  C        7.341      39.522     -55.247
  C        8.158      38.611     -54.598
  C        9.519      38.941     -54.504
  N       10.435      38.164     -53.833
  N        7.422      37.542     -54.138
  C        6.182      37.804     -54.491
  N        6.080      38.995     -55.155
  O        4.190      39.374     -50.743
  O        1.699      38.915     -50.331
  H        2.867      40.142     -57.139
  H        3.891      40.301     -50.676
  H        9.428      41.781     -56.153
  H        5.331      37.171     -54.281
  H        5.203      40.516     -56.240
  H        4.561      37.862     -56.984
  H        3.434      37.424     -54.870
  H        2.120      40.179     -55.251
  H        2.180      40.215     -52.763
  H       11.346      38.557     -53.653
  H       10.085      37.411     -53.251
  H        1.110      38.950     -53.410
  P        1.545      36.189     -56.166
  C        2.941      34.166     -57.007
  O        2.741      35.566     -57.029
  O        0.266      36.051     -57.117
  O        1.319      35.593     -54.818
  H       -0.231      35.239     -56.903
  H        3.565      33.887     -57.860
  H        1.991      33.629     -57.080
  H        3.456      33.880     -56.085
  H        3.060      35.000     -50.208
  H        2.348      35.726     -51.629
  H        1.684      36.065     -50.049

 3  4  5  6  7  8  9  10  11  12  22  25  29  30  31  32 0
 6-311+G(2d,p)
 ****
 33  36  37 0
 6-311+G(2d,p)
 ****
 1  2  13  14  15  16  17  18  19  20  21  23  24  26 0
 3-21G
 ****
 27  28  34  35  38  39  40  41  42  43  44  45  46  47  48 0
 3-21G
 ****


