%nproc=1
%NoSave
%Mem=1900MB
#P OB98/GEN NMR

erre ene a

0 1
  C      561.501    -237.916    -296.474
  O      562.632    -237.378    -297.129
  P      563.780    -236.598    -296.306
  C      563.853    -234.341    -297.599
  O      563.390    -235.040    -296.447
  C      563.784    -232.853    -297.359
  O      562.422    -232.459    -297.088
  C      564.611    -232.343    -296.178
  O      565.991    -232.304    -296.479
  C      563.945    -230.996    -295.916
  O      564.429    -230.015    -296.838
  C      562.466    -231.303    -296.208
  N      561.686    -231.541    -294.992
  C      560.672    -230.611    -294.706
  O      560.470    -229.649    -295.444
  N      559.888    -230.811    -293.583
  C      560.119    -231.828    -292.819
  N      559.272    -232.011    -291.760
  C      561.213    -232.807    -293.045
  C      561.944    -232.604    -294.138
  O      565.168    -236.926    -296.710
  O      563.450    -236.901    -294.775
  H      563.972    -229.177    -296.632
  H      563.876    -237.724    -294.436
  H      561.354    -233.625    -292.372
  H      562.733    -233.278    -294.393
  H      562.015    -230.482    -296.759
  H      564.120    -230.631    -294.892
  H      564.459    -233.005    -295.315
  H      564.111    -232.327    -298.276
  H      558.446    -231.419    -291.740
  H      563.210    -234.608    -298.448
  H      559.194    -232.910    -291.295
  H      564.886    -234.677    -297.817
  P      567.032    -232.264    -295.277
  C      567.664    -229.828    -295.920
  O      567.223    -230.709    -294.911
  O      568.407    -232.689    -295.955
  O      566.672    -233.154    -294.118
  H      568.609    -233.621    -295.764
  H      567.521    -228.802    -295.587
  H      567.093    -229.988    -296.845
  H      568.738    -229.996    -296.101
  H      560.865    -238.390    -297.192
  H      560.964    -237.130    -295.985
  H      561.818    -238.636    -295.749

 3  4  5  6  7  8  9  10  11  12  13  23  27  28  29  30  32 0
 6-311+G(2d,p)
 ****
 34  35 0
 6-311+G(2d,p)
 ****
 1  2  14  15  16  17  18  19  20  21  22  24  25  26 0
 3-21G
 ****
 31  33  36  37  38  39  40  41  42  43  44  45  46 0
 3-21G
 ****


