%nproc=1
%NoSave
%Mem=1900MB
#P OB98/GEN NMR

erre ene a

0 1
  C      379.143    -289.849     -61.943
  O      379.464    -290.607     -63.110
  P      380.571    -291.753     -62.932
  C      378.984    -293.782     -63.235
  O      380.085    -293.047     -63.747
  C      378.290    -294.565     -64.355
  O      377.396    -293.740     -65.127
  C      379.260    -295.178     -65.353
  O      379.816    -296.370     -64.823
  C      378.357    -295.422     -66.556
  O      377.639    -296.666     -66.428
  C      377.383    -294.232     -66.492
  N      375.620    -291.431     -70.331
  C      375.085    -292.563     -69.741
  N      373.902    -292.990     -70.226
  N      375.663    -293.211     -68.762
  C      376.840    -292.665     -68.376
  C      377.454    -291.536     -68.864
  C      376.809    -290.829     -69.948
  O      377.229    -289.813     -70.489
  N      378.612    -291.261     -68.178
  C      378.754    -292.290     -67.369
  N      377.675    -293.139     -67.403
  O      380.413    -292.182     -61.397
  O      381.959    -291.294     -63.231
  H      377.027    -296.602     -65.672
  H      381.189    -291.882     -60.887
  H      375.139    -290.977     -71.088
  H      379.603    -292.460     -66.719
  H      376.355    -294.545     -66.711
  H      378.927    -295.489     -67.485
  H      373.404    -292.541     -70.977
  H      380.044    -294.455     -65.612
  H      373.488    -293.815     -69.804
  H      377.694    -295.356     -63.880
  H      378.270    -293.106     -62.760
  H      379.344    -294.460     -62.456
  P      381.014    -297.062     -65.630
  C      382.593    -297.135     -63.572
  O      381.907    -297.862     -64.572
  O      381.933    -295.820     -66.050
  O      380.584    -297.842     -66.828
  H      382.210    -295.920     -66.979
  H      382.698    -297.765     -62.686
  H      382.063    -296.220     -63.301
  H      383.592    -296.879     -63.942
  H      378.398    -289.120     -62.185
  H      380.022    -289.355     -61.586
  H      378.768    -290.504     -61.184

 3  4  5  6  7  8  9  10  11  12  23  26  30  31 0
 6-311+G(2d,p)
 ****
 33  35  36  37  38 0
 6-311+G(2d,p)
 ****
 1  2  13  14  15  16  17  18  19  20  21  22  24  25 0
 3-21G
 ****
 27  28  29  32  34  39  40  41  42  43  44  45  46  47  48  49 0
 3-21G
 ****


