%nproc=1
%NoSave
%Mem=1900MB
#P OB98/GEN NMR

erre ene a

0 1
  C      -22.272     284.833    -118.999
  O      -22.331     283.573    -118.356
  P      -22.347     283.561    -116.752
  C      -24.633     282.325    -116.608
  O      -23.893     283.511    -116.330
  C      -25.981     282.674    -117.225
  O      -25.790     283.383    -118.462
  C      -26.833     281.463    -117.575
  O      -27.438     280.926    -116.419
  C      -27.817     282.064    -118.568
  O      -28.946     282.642    -117.890
  C      -26.973     283.158    -119.264
  N      -26.625     282.815    -120.633
  C      -27.137     283.667    -121.621
  O      -27.847     284.627    -121.306
  N      -26.864     283.386    -122.939
  C      -26.146     282.349    -123.237
  N      -25.903     282.121    -124.558
  C      -25.609     281.411    -122.228
  C      -25.886     281.700    -120.960
  O      -21.904     285.049    -116.373
  O      -21.468     282.529    -116.124
  H      -28.573     283.126    -117.125
  H      -21.482     285.077    -115.492
  H      -25.019     280.560    -122.535
  H      -25.535     281.070    -120.151
  H      -27.518     284.111    -119.281
  H      -28.212     281.314    -119.261
  H      -26.223     280.698    -118.079
  H      -26.520     283.336    -116.531
  H      -26.292     282.776    -125.227
  H      -24.802     281.782    -115.674
  H      -25.337     281.352    -124.891
  H      -24.047     281.691    -117.280
  P      -26.675     279.748    -115.652
  C      -26.624     280.107    -113.112
  O      -26.041     280.445    -114.355
  O      -25.382     279.526    -116.577
  O      -27.424     278.480    -115.424
  H      -24.876     278.753    -116.263
  H      -26.007     280.520    -112.309
  H      -26.677     279.024    -112.995
  H      -27.631     280.541    -113.041
  H      -22.268     284.692    -120.060
  H      -21.379     285.343    -118.703
  H      -23.125     285.416    -118.720

 3  4  5  6  7  8  9  10  11  12  13  21  23  27  28  29  30  32 0
 6-311+G(2d,p)
 ****
 34  35 0
 6-311+G(2d,p)
 ****
 1  2  14  15  16  17  18  19  20  22  24  25  26 0
 3-21G
 ****
 31  33  36  37  38  39  40  41  42  43  44  45  46 0
 3-21G
 ****


