%nproc=1
%NoSave
%Mem=1900MB
#P OB98/GEN NMR

erre ene a

0 1
  C     1411.854    -410.872     -19.725
  O     1411.174    -409.973     -20.595
  P     1409.585    -409.806     -20.400
  C     1409.758    -407.219     -20.078
  O     1409.264    -408.307     -20.851
  C     1410.259    -406.104     -20.996
  O     1411.533    -406.469     -21.612
  C     1409.340    -405.803     -22.166
  O     1408.191    -405.068     -21.744
  C     1410.268    -405.038     -23.100
  O     1410.377    -403.670     -22.686
  C     1411.603    -405.787     -22.879
  N     1411.941    -406.686     -23.970
  C     1412.216    -406.088     -25.216
  O     1412.146    -404.891     -25.381
  N     1412.551    -406.938     -26.224
  C     1412.606    -408.302     -26.134
  O     1412.910    -409.011     -27.093
  C     1412.259    -408.888     -24.840
  C     1411.948    -408.057     -23.816
  O     1409.476    -409.790     -18.803
  O     1408.801    -410.877     -21.080
  H     1410.233    -409.353     -18.384
  H     1409.534    -403.241     -22.947
  H     1412.751    -406.517     -27.123
  H     1412.257    -409.954     -24.744
  H     1411.702    -408.461     -22.860
  H     1412.426    -405.056     -22.768
  H     1409.921    -405.029     -24.150
  H     1409.001    -406.739     -22.638
  H     1410.420    -405.193     -20.401
  H     1410.585    -407.547     -19.448
  H     1408.978    -406.855     -19.413
  P     1407.002    -404.900     -22.820
  C     1405.216    -406.250     -21.465
  O     1405.615    -405.009     -21.993
  O     1407.093    -406.276     -23.616
  O     1407.138    -403.663     -23.663
  H     1407.210    -407.053     -23.031
  H     1404.480    -406.066     -20.677
  H     1406.061    -406.797     -21.040
  H     1404.752    -406.848     -22.243
  H     1412.896    -410.883     -19.967
  H     1411.451    -411.856     -19.843
  H     1411.726    -410.553     -18.712

 3  4  5  6  7  8  9  10  11  12  13  24  28  29  30  31  32 0
 6-311+G(2d,p)
 ****
 33  34 0
 6-311+G(2d,p)
 ****
 1  2  14  15  16  17  18  19  20  21  22  23  25  26  27 0
 3-21G
 ****
 35  36  37  38  39  40  41  42  43  44  45 0
 3-21G
 ****


