%nproc=1
%NoSave
%Mem=1900MB
#P OB98/GEN NMR

erre ene a

0 1
  C       88.657     440.857     404.685
  O       88.465     439.653     403.961
  P       89.099     439.559     402.489
  C       91.566     440.044     403.148
  O       90.397     440.503     402.479
  C       92.808     440.774     402.633
  O       93.867     440.645     403.623
  C       93.358     440.241     401.300
  O       93.886     441.367     400.590
  C       94.471     439.313     401.761
  O       95.400     438.972     400.747
  C       95.024     440.116     402.935
  N       99.792     438.665     404.079
  C       99.310     439.531     403.161
  N       98.031     439.873     402.921
  C       97.201     439.226     403.754
  C       97.541     438.300     404.730
  C       98.908     438.024     404.880
  N       99.395     437.128     405.816
  N       96.414     437.823     405.370
  C       95.411     438.455     404.793
  N       95.837     439.322     403.826
  O       88.051     440.368     401.593
  O       89.317     438.166     401.981
  H       96.110     438.416     401.121
  H       87.932     439.943     400.721
  H      100.058     440.017     402.535
  H       94.364     438.301     405.025
  H       95.629     440.968     402.599
  H       94.024     438.375     402.116
  H       92.601     439.751     400.682
  H       92.572     441.842     402.544
  H       91.694     438.974     402.961
  H      100.360     436.851     405.710
  H       98.723     436.508     406.254
  H       91.446     440.187     404.227
  P       93.862     441.356     398.986
  C       91.868     442.975     399.029
  O       92.336     441.705     398.623
  O       93.909     439.776     398.691
  O       94.927     442.143     398.310
  H       93.232     439.297     399.205
  H       90.857     443.118     398.637
  H       92.515     443.766     398.643
  H       91.829     443.022     400.124
  H       88.184     440.777     405.641
  H       88.228     441.672     404.141
  H       89.704     441.030     404.819

 3  4  5  6  7  8  9  10  11  12  22  25  29  30  31  32 0
 6-311+G(2d,p)
 ****
 33  36  37 0
 6-311+G(2d,p)
 ****
 1  2  13  14  15  16  17  18  19  20  21  23  24  26 0
 3-21G
 ****
 27  28  34  35  38  39  40  41  42  43  44  45  46  47  48 0
 3-21G
 ****


