%nproc=1
%NoSave
%Mem=1900MB
#P OB98/GEN NMR

erre ene a

0 1
  C      246.156     880.726    -518.516
  O      247.491     881.159    -518.378
  P      248.097     881.453    -516.925
  C      248.064     883.982    -517.439
  O      248.839     882.879    -516.967
  C      248.931     885.240    -517.525
  O      249.554     885.533    -516.253
  C      250.069     885.136    -518.518
  O      249.621     885.197    -519.859
  C      250.943     886.305    -518.070
  O      250.438     887.550    -518.600
  C      250.759     886.268    -516.540
  N      251.915     885.695    -515.866
  C      252.893     886.600    -515.449
  O      252.803     887.792    -515.723
  N      253.966     886.124    -514.727
  C      254.107     884.851    -514.553
  N      255.148     884.434    -513.772
  C      253.181     883.847    -515.115
  C      252.099     884.330    -515.734
  O      248.903     880.346    -516.331
  O      246.803     881.760    -516.020
  H      246.849     881.221    -515.213
  H      250.819     888.270    -518.048
  H      253.373     882.778    -514.993
  H      251.355     883.679    -516.164
  H      250.586     887.274    -516.152
  H      251.976     886.205    -518.413
  H      250.615     884.199    -518.357
  H      248.268     886.079    -517.783
  H      255.763     885.148    -513.403
  H      247.233     884.149    -516.741
  H      255.165     883.529    -513.320
  H      247.645     883.734    -518.423
  P      250.161     884.059    -520.862
  C      249.851     885.402    -523.059
  O      249.453     884.283    -522.272
  O      249.487     882.722    -520.290
  O      251.654     883.933    -520.916
  H      250.105     881.966    -520.395
  H      249.550     885.211    -524.095
  H      250.938     885.537    -523.026
  H      249.354     886.298    -522.699
  H      245.933     880.583    -519.553
  H      245.498     881.464    -518.108
  H      246.025     879.803    -517.992

 3  4  5  6  7  8  9  10  11  12  13  24  27  28  29  30  32 0
 6-311+G(2d,p)
 ****
 34  35 0
 6-311+G(2d,p)
 ****
 1  2  14  15  16  17  18  19  20  21  22  23  25  26 0
 3-21G
 ****
 31  33  36  37  38  39  40  41  42  43  44  45  46 0
 3-21G
 ****


