%nproc=1
%NoSave
%Mem=1900MB
#P OB98/GEN NMR

erre ene a

0 1
  C       13.772      51.796    -233.860
  O       13.250      52.289    -235.077
  H       13.397      52.399    -233.030
  H       13.435      50.765    -233.725
  H       14.865      51.812    -233.869
  P       13.853      53.670    -235.627
  C       14.571      52.676    -237.915
  O       14.986      53.274    -236.696
  C       15.767      52.458    -238.839
  O       16.666      51.498    -238.214
  C       15.402      51.922    -240.232
  O       16.251      52.550    -241.196
  C       15.760      50.450    -240.142
  O       16.051      49.876    -241.412
  C       16.958      50.492    -239.199
  N       18.943      45.875    -239.970
  C       19.101      47.045    -240.624
  N       18.574      48.248    -240.318
  C       17.872      48.182    -239.173
  C       17.629      47.066    -238.393
  C       18.190      45.858    -238.845
  N       17.979      44.648    -238.225
  N       16.816      47.391    -237.325
  C       16.552      48.675    -237.475
  N       17.167      49.195    -238.579
  O       14.692      54.203    -234.371
  O       12.851      54.669    -236.094
  H       16.604      49.082    -241.281
  H       14.112      54.727    -233.789
  H       19.721      47.010    -241.515
  H       15.906      49.261    -236.839
  H       17.889      50.767    -239.710
  H       14.926      49.896    -239.697
  H       14.352      52.081    -240.505
  H       16.318      53.403    -238.922
  H       13.855      53.340    -238.413
  H       18.331      43.820    -238.681
  H       17.333      44.601    -237.452
  H       14.077      51.723    -237.701
  P       15.745      53.929    -241.839
  C       17.584      55.335    -240.647
  O       16.195      55.132    -240.883
  O       14.159      53.868    -241.636
  O       16.109      54.094    -243.279
  H       13.706      54.320    -242.370
  H       17.716      56.171    -239.993
  H       18.079      55.527    -241.576
  H       18.001      54.459    -240.195

 6  7  8  9  10  11  12  13  14  15  25  28  32  33  34  35 0
 6-311+G(2d,p)
 ****
 36  39  40 0
 6-311+G(2d,p)
 ****
 1  2  3  4  5  16  17  18  19  20  21  22  23  24 0
 3-21G
 ****
 26  27  29  30  31  37  38  41  42  43  44  45  46  47 0
 3-21G
 ****
 48 0
 3-21G
 ****


