%nproc=1
%NoSave
%Mem=1900MB
#P OB98/GEN NMR

erre ene a

0 1
  C      101.318     130.065      16.167
  O      100.662     129.296      17.153
  H      100.567     130.632      15.610
  H      101.849     129.413      15.469
  H      102.018     130.768      16.624
  P      101.545     128.468      18.202
  C      101.566     130.386      19.922
  O      102.345     129.541      19.085
  C      102.289     130.615      21.246
  O      101.499     131.462      22.109
  C      102.545     129.338      22.038
  O      103.613     128.602      21.478
  C      102.809     129.916      23.419
  O      104.147     130.425      23.519
  C      101.783     131.073      23.472
  N      100.557     130.713      24.186
  C      100.383     131.295      25.437
  O      101.195     132.065      25.941
  N       99.253     130.921      26.115
  C       98.355     129.976      25.709
  O       97.484     129.514      26.439
  C       98.550     129.453      24.349
  C       99.634     129.827      23.666
  O      102.381     127.375      17.626
  O      100.461     127.895      19.234
  H      100.282     126.958      19.025
  H      104.260     130.728      24.442
  H       99.140     131.300      27.044
  H       97.823     128.749      23.964
  H       99.814     129.431      22.673
  H      102.220     131.950      23.967
  H      102.689     129.174      24.211
  H      101.633     128.731      22.077
  H      103.232     131.136      21.034
  H      100.604     129.897      20.112
  H      101.387     131.335      19.406
  P      104.105     127.228      22.131
  C      102.708     125.714      20.607
  O      102.942     126.143      21.941
  O      104.626     127.340      23.525
  O      105.248     126.706      21.137
  H      106.059     126.523      21.650
  H      101.916     124.995      20.597
  H      103.598     125.269      20.214
  H      102.433     126.555      20.005

 6  7  8  9  10  11  12  13  14  15  16  27  31  32  33  34  35 0
 6-311+G(2d,p)
 ****
 36  37 0
 6-311+G(2d,p)
 ****
 1  2  3  4  5  17  18  19  20  21  22  23  24  25 0
 3-21G
 ****
 26  28  29  30  38  39  40  41  42  43  44  45 0
 3-21G
 ****


