%nproc=1
%NoSave
%Mem=1900MB
#P OB98/GEN NMR

erre ene a

0 1
  C     -415.772    -353.854     -71.059
  O     -416.377    -353.051     -70.066
  H     -416.434    -353.888     -71.925
  H     -415.629    -354.865     -70.680
  H     -414.809    -353.436     -71.365
  P     -415.496    -352.561     -68.824
  C     -417.438    -352.785     -67.129
  O     -416.506    -351.915     -67.756
  C     -418.833    -352.152     -67.081
  O     -418.878    -351.199     -65.981
  C     -419.136    -351.369     -68.361
  O     -420.541    -351.316     -68.632
  C     -418.655    -349.973     -68.022
  O     -419.272    -348.954     -68.819
  C     -418.993    -349.883     -66.536
  N     -416.966    -345.203     -66.310
  C     -417.655    -345.808     -67.341
  N     -417.821    -345.065     -68.470
  N     -418.107    -347.030     -67.296
  C     -417.797    -347.678     -66.140
  C     -417.109    -347.194     -65.049
  C     -416.643    -345.824     -65.110
  O     -416.010    -345.244     -64.227
  N     -416.986    -348.146     -64.070
  C     -417.596    -349.205     -64.566
  N     -418.126    -348.963     -65.804
  O     -414.725    -351.278     -69.391
  O     -414.543    -353.576     -68.267
  H     -419.052    -348.090     -68.419
  H     -413.918    -351.106     -68.868
  H     -416.663    -344.244     -66.388
  H     -417.699    -350.158     -64.058
  H     -420.027    -349.543     -66.391
  H     -417.584    -349.919     -68.225
  H     -417.320    -344.203     -68.611
  H     -418.623    -351.764     -69.234
  H     -418.033    -345.586     -69.323
  H     -419.588    -352.919     -66.864
  H     -417.059    -352.984     -66.118
  H     -417.470    -353.749     -67.659
  P     -421.037    -351.613     -70.130
  C     -423.179    -350.238     -70.863
  O     -422.616    -351.373     -70.239
  O     -420.887    -353.197     -70.275
  O     -420.276    -350.874     -71.195
  H     -420.215    -353.415     -70.958
  H     -424.246    -350.296     -70.814
  H     -422.871    -350.204     -71.887
  H     -422.847    -349.353     -70.361

 6  7  8  9  10  11  12  13  14  15  26  29  33  34 0
 6-311+G(2d,p)
 ****
 36  38  39  40  41 0
 6-311+G(2d,p)
 ****
 1  2  3  4  5  16  17  18  19  20  21  22  23  24  25 0
 3-21G
 ****
 27  28  30  31  32  35  37  42  43  44  45  46  47 0
 3-21G
 ****
 48  49 0
 3-21G
 ****


