%nproc=1
%NoSave
%Mem=1900MB
#P OB98/GEN NMR

erre ene a

0 1
  C      -54.072    -151.149    -265.032
  O      -53.816    -151.849    -263.832
  H      -54.069    -150.075    -264.818
  H      -55.057    -151.427    -265.418
  H      -53.308    -151.360    -265.784
  P      -53.445    -153.404    -263.906
  C      -52.487    -155.162    -262.277
  O      -53.062    -153.872    -262.422
  C      -51.793    -155.304    -260.916
  O      -50.669    -154.387    -260.864
  C      -52.731    -154.922    -259.763
  O      -52.405    -155.601    -258.553
  C      -52.458    -153.431    -259.587
  O      -52.800    -152.952    -258.292
  C      -50.963    -153.363    -259.902
  N      -49.783    -148.527    -258.784
  C      -50.363    -149.491    -257.983
  N      -50.665    -149.121    -256.716
  N      -50.640    -150.702    -258.391
  C      -50.354    -150.910    -259.698
  C      -49.803    -150.028    -260.599
  C      -49.463    -148.701    -260.129
  O      -48.974    -147.805    -260.802
  N      -49.665    -150.604    -261.842
  C      -50.135    -151.820    -261.698
  N      -50.547    -152.068    -260.409
  O      -52.023    -153.418    -264.651
  O      -54.443    -154.273    -264.612
  H      -53.683    -153.298    -258.071
  H      -51.865    -154.288    -265.061
  H      -49.563    -147.617    -258.414
  H      -50.192    -152.565    -262.478
  H      -50.372    -153.574    -258.995
  H      -53.071    -152.883    -260.310
  H      -50.646    -148.150    -256.429
  H      -53.782    -155.096    -259.998
  H      -51.354    -149.695    -256.224
  H      -51.385    -156.317    -260.804
  H      -51.767    -155.288    -263.093
  H      -53.248    -155.934    -262.402
  P      -53.247    -156.903    -258.151
  C      -52.861    -159.024    -256.618
  O      -52.452    -157.749    -257.053
  O      -53.187    -157.815    -259.460
  O      -54.662    -156.616    -257.729
  H      -54.077    -157.928    -259.838
  H      -52.173    -159.388    -255.883
  H      -52.881    -159.695    -257.451
  H      -53.839    -158.958    -256.189

 6  7  8  9  10  11  12  13  14  15  26  29  33  34 0
 6-311+G(2d,p)
 ****
 36  38  39  40  41 0
 6-311+G(2d,p)
 ****
 1  2  3  4  5  16  17  18  19  20  21  22  23  24  25 0
 3-21G
 ****
 27  28  30  31  32  35  37  42  43  44  45  46  47 0
 3-21G
 ****
 48  49 0
 3-21G
 ****


