%nproc=1
%NoSave
%Mem=1900MB
#P OB98/GEN NMR

erre ene a

0 1
  C      -58.379     -30.706       6.608
  O      -57.015     -30.371       6.751
  H      -58.523     -31.733       6.953
  H      -58.679     -30.647       5.559
  H      -59.004     -30.045       7.213
  P      -56.537     -28.905       6.308
  C      -55.644     -28.114       8.608
  O      -56.683     -28.024       7.647
  C      -55.424     -26.760       9.277
  O      -55.140     -25.734       8.302
  C      -56.623     -26.227      10.053
  O      -56.852     -26.895      11.282
  C      -56.187     -24.787      10.251
  O      -55.185     -24.721      11.281
  C      -55.587     -24.467       8.862
  N      -56.547     -23.821       7.969
  C      -56.763     -22.452       8.164
  O      -56.171     -21.844       9.054
  N      -57.674     -21.804       7.365
  C      -58.331     -22.471       6.466
  N      -59.226     -21.780       5.707
  C      -58.150     -23.917       6.240
  C      -57.253     -24.522       7.014
  O      -57.197     -28.339       5.093
  O      -54.947     -29.024       6.175
  H      -54.400     -25.191      10.943
  H      -54.600     -28.144       5.892
  H      -58.743     -24.431       5.499
  H      -57.068     -25.586       6.912
  H      -54.703     -23.824       8.956
  H      -57.002     -24.126      10.551
  H      -57.526     -26.234       9.431
  H      -54.537     -26.850       9.917
  H      -59.329     -20.790       5.886
  H      -54.736     -28.452       8.100
  H      -59.835     -22.231       5.038
  H      -55.910     -28.841       9.381
  P      -58.271     -26.640      11.995
  C      -59.520     -28.710      11.009
  O      -59.377     -27.299      11.044
  O      -58.487     -25.067      11.817
  O      -58.350     -27.075      13.425
  H      -58.236     -24.589      12.631
  H      -60.300     -28.973      10.325
  H      -59.768     -29.068      11.987
  H      -58.600     -29.154      10.689

 6  7  8  9  10  11  12  13  14  15  16  26  30  31  32  33  35 0
 6-311+G(2d,p)
 ****
 37  38 0
 6-311+G(2d,p)
 ****
 1  2  3  4  5  17  18  19  20  21  22  23  24  25 0
 3-21G
 ****
 27  28  29  34  36  39  40  41  42  43  44  45  46 0
 3-21G
 ****


