%nproc=1
%NoSave
%Mem=1900MB
#P OB98/GEN NMR

erre ene a

0 1
  C      120.520     -73.072     -75.901
  O      121.101     -71.811     -76.164
  P      120.288     -70.448     -75.938
  C      119.040     -70.732     -78.167
  O      118.918     -70.616     -76.758
  C      118.154     -69.715     -78.889
  O      116.763     -70.128     -78.792
  C      118.250     -68.283     -78.345
  O      118.078     -67.414     -79.468
  C      117.051     -68.204     -77.421
  O      116.668     -66.865     -77.132
  C      116.026     -69.033     -78.206
  N      114.932     -69.494     -77.360
  C      114.230     -68.516     -76.651
  O      114.591     -67.338     -76.696
  N      113.171     -68.898     -75.867
  C      112.907     -70.158     -75.720
  N      111.844     -70.478     -74.935
  C      113.702     -71.229     -76.349
  C      114.680     -70.831     -77.160
  O      121.048     -69.199     -76.232
  O      119.795     -70.552     -74.419
  H      117.430     -66.410     -76.711
  H      120.540     -70.347     -73.800
  H      113.478     -72.267     -76.153
  H      115.316     -71.543     -77.666
  H      115.603     -68.444     -79.030
  H      117.287     -68.695     -76.469
  H      119.192     -68.072     -77.832
  H      118.422     -69.729     -79.952
  H      111.317     -69.711     -74.535
  H      118.723     -71.739     -78.453
  H      111.503     -71.420     -74.821
  H      120.088     -70.615     -78.464
  P      118.951     -66.081     -79.632
  C      116.927     -64.516     -79.563
  O      118.135     -64.898     -78.929
  O      119.406     -65.790     -81.025
  O      120.197     -66.300     -78.647
  H      120.901     -65.662     -78.868
  H      116.332     -63.921     -78.865
  H      116.349     -65.394     -79.865
  H      117.153     -63.910     -80.444
  H      121.229     -73.844     -76.117
  H      119.654     -73.201     -76.516
  H      120.237     -73.126     -74.871

 3  4  5  6  7  8  9  10  11  12  13  23  27  28  29  30  32 0
 6-311+G(2d,p)
 ****
 34  35 0
 6-311+G(2d,p)
 ****
 1  2  14  15  16  17  18  19  20  21  22  24  25  26 0
 3-21G
 ****
 31  33  36  37  38  39  40  41  42  43  44  45  46 0
 3-21G
 ****


