%nproc=1
%NoSave
%Mem=1900MB
#P OB98/GEN NMR

erre ene a

0 1
  C     1079.815     217.018    -409.476
  O     1079.168     218.093    -408.825
  H     1080.851     216.932    -409.125
  H     1079.281     216.089    -409.237
  H     1079.805     217.161    -410.560
  P     1079.787     219.560    -409.057
  C     1078.786     220.374    -406.790
  O     1079.958     220.195    -407.590
  C     1079.188     220.474    -405.312
  O     1079.804     219.253    -404.883
  C     1080.215     221.568    -405.007
  O     1079.597     222.854    -404.905
  C     1080.753     221.084    -403.670
  O     1079.790     221.411    -402.629
  C     1080.832     219.575    -403.889
  N     1085.402     217.753    -402.479
  C     1084.317     218.147    -401.785
  N     1083.151     218.610    -402.241
  C     1083.133     218.690    -403.557
  C     1084.158     218.322    -404.428
  C     1085.346     217.843    -403.831
  N     1086.440     217.464    -404.574
  N     1083.810     218.565    -405.744
  C     1082.552     219.025    -405.661
  N     1082.101     219.126    -404.368
  O     1078.556     220.399    -409.673
  O     1081.008     219.626    -409.921
  H     1080.062     220.900    -401.849
  H     1078.891     221.186    -410.136
  H     1084.413     218.071    -400.683
  H     1081.958     219.291    -406.515
  H     1080.595     219.008    -402.980
  H     1081.696     221.567    -403.403
  H     1081.041     221.567    -405.749
  H     1078.258     220.628    -404.727
  H     1078.134     219.514    -406.926
  H     1087.298     217.287    -404.048
  H     1086.466     217.644    -405.550
  H     1078.268     221.284    -407.104
  P     1080.571     224.096    -404.571
  C     1078.668     225.790    -405.129
  O     1079.598     225.309    -404.158
  O     1081.100     224.540    -406.027
  O     1081.685     223.807    -403.628
  H     1081.979     224.971    -405.946
  H     1078.096     226.591    -404.709
  H     1078.011     224.996    -405.418
  H     1079.200     226.143    -405.988

 6  7  8  9  10  11  12  13  14  15  25  28  32  33  34  35 0
 6-311+G(2d,p)
 ****
 36  39  40 0
 6-311+G(2d,p)
 ****
 1  2  3  4  5  16  17  18  19  20  21  22  23  24 0
 3-21G
 ****
 26  27  29  30  31  37  38  41  42  43  44  45  46  47 0
 3-21G
 ****
 48 0
 3-21G
 ****


