%nproc=1
%NoSave
%Mem=1900MB
#P OB98/GEN NMR

erre ene a

0 1
  C     -240.103     356.033     725.487
  O     -238.881     356.128     726.212
  P     -238.665     355.060     727.405
  C     -236.717     353.672     726.360
  O     -237.121     354.605     727.348
  C     -235.197     353.657     726.218
  O     -234.736     354.735     725.374
  C     -234.448     353.826     727.539
  O     -234.393     352.625     728.281
  C     -233.066     354.224     727.037
  O     -232.315     353.047     726.687
  C     -233.394     355.054     725.784
  N     -230.931     359.338     724.608
  C     -230.716     358.043     724.176
  N     -229.714     357.866     723.277
  N     -231.411     357.017     724.579
  C     -232.399     357.335     725.456
  C     -232.708     358.576     725.961
  C     -231.907     359.706     725.531
  O     -232.029     360.869     725.912
  N     -233.774     358.520     726.818
  C     -234.128     357.249     726.811
  N     -233.317     356.483     726.004
  O     -239.442     353.772     726.872
  O     -239.171     355.512     728.732
  H     -232.127     352.570     727.526
  H     -239.747     353.225     727.618
  H     -230.356     360.090     724.269
  H     -234.969     356.836     727.357
  H     -232.724     354.799     724.948
  H     -232.475     354.755     727.785
  H     -229.182     358.623     722.871
  H     -234.876     354.657     728.131
  H     -229.563     356.940     722.912
  H     -234.911     352.690     725.754
  H     -237.163     353.940     725.396
  H     -237.104     352.681     726.625
  P     -234.031     352.746     729.845
  C     -236.322     351.850     730.672
  O     -234.933     351.651     730.581
  O     -234.689     354.139     730.266
  O     -232.563     352.697     730.140
  H     -234.199     354.543     731.013
  H     -236.730     352.236     729.721
  H     -236.539     352.566     731.464
  H     -236.822     350.908     730.902
  H     -240.128     356.788     724.729
  H     -240.926     356.172     726.156
  H     -240.173     355.068     725.031

 3  4  5  6  7  8  9  10  11  12  23  26  30  31  33  0
 6-311+G(2d,p)
 ****
 35  36  37  38 0
 6-311+G(2d,p)
 ****
 1  2  13  14  15  16  17  18  19  20  21  22  24  25  27  28  29 0
 3-21G
 ****
 32  34  39  40  41  42  43  44  45  46  47  48  49 0
 3-21G
 ****


