%nproc=1
%NoSave
%Mem=1900MB
#P OB98/GEN NMR

erre ene a

0 1
  C     -502.747     273.479     627.110
  O     -502.450     272.176     626.638
  P     -503.448     271.429     625.622
  C     -503.255     269.186     624.368
  O     -502.553     270.311     624.899
  C     -502.465     268.550     623.219
  O     -502.401     269.440     622.089
  C     -501.024     268.214     623.568
  O     -500.955     267.039     624.356
  C     -500.413     268.081     622.186
  O     -500.655     266.787     621.625
  C     -501.168     269.175     621.389
  N     -500.378     270.382     621.202
  C     -499.276     270.259     620.355
  O     -498.997     269.179     619.831
  N     -498.477     271.366     620.137
  C     -498.747     272.478     620.757
  N     -497.917     273.533     620.510
  C     -499.883     272.632     621.686
  C     -500.639     271.559     621.856
  O     -504.222     272.323     624.714
  O     -504.372     270.564     626.603
  H     -500.060     266.713     620.848
  H     -505.030     271.137     627.079
  H     -500.069     273.580     622.174
  H     -501.496     271.580     622.531
  H     -501.452     268.798     620.397
  H     -499.322     268.234     622.198
  H     -500.558     269.060     624.096
  H     -502.999     267.637     622.909
  H     -497.135     273.370     619.890
  H     -504.221     269.532     623.986
  H     -498.013     274.426     620.962
  H     -503.439     268.464     625.170
  P     -499.924     266.951     625.577
  C     -499.533     265.326     627.531
  O     -500.479     265.848     626.603
  O     -499.553     268.260     626.197
  O     -498.643     266.238     624.935
  H     -497.836     266.708     625.237
  H     -500.092     264.858     628.355
  H     -498.900     266.109     627.922
  H     -498.930     264.570     627.035
  H     -501.971     273.805     627.771
  H     -503.679     273.464     627.635
  H     -502.815     274.152     626.281

 3  4  5  6  7  8  9  10  11  12  13  23  27  28  29  30  32 0
 6-311+G(2d,p)
 ****
 34  35 0
 6-311+G(2d,p)
 ****
 1  2  14  15  16  17  18  19  20  21  22  24  25  26 0
 3-21G
 ****
 31  33  36  37  38  39  40  41  42  43  44  45  46 0
 3-21G
 ****


