%nproc=1
%NoSave
%Mem=1900MB
#P OB98/GEN NMR

erre ene a

0 1
  C     -450.895     104.702     -88.462
  O     -450.095     104.620     -87.297
  H     -450.399     105.349     -89.185
  H     -451.872     105.128     -88.212
  H     -451.023     103.707     -88.901
  P     -450.649     103.692     -86.111
  C     -448.486     102.398     -85.444
  O     -449.403     103.433     -85.136
  C     -447.102     102.714     -84.865
  O     -446.566     103.881     -85.548
  C     -447.117     103.048     -83.361
  O     -445.848     102.668     -82.808
  C     -447.232     104.563     -83.387
  O     -446.942     105.111     -82.119
  C     -446.271     104.867     -84.530
  N     -444.912     109.772     -84.013
  C     -444.538     108.659     -83.348
  N     -444.928     107.386     -83.547
  C     -445.794     107.316     -84.576
  C     -446.258     108.357     -85.355
  C     -445.784     109.642     -85.040
  N     -446.171     110.780     -85.710
  N     -447.141     107.892     -86.320
  C     -447.197     106.589     -86.121
  N     -446.407     106.198     -85.079
  O     -450.874     102.278     -86.825
  O     -451.883     104.183     -85.438
  H     -447.497     104.699     -81.423
  H     -451.805     102.192     -87.107
  H     -443.819     108.812     -82.539
  H     -447.797     105.893     -86.699
  H     -445.224     104.737     -84.231
  H     -448.250     104.873     -83.637
  H     -447.925     102.544     -82.812
  H     -446.426     101.876     -85.080
  H     -448.419     102.308     -86.540
  H     -448.849     101.448     -85.031
  H     -445.800     111.665     -85.412
  H     -446.834     110.701     -86.466
  P     -445.790     101.454     -81.752
  C     -443.538     100.290     -82.400
  O     -444.249     101.093     -81.472
  O     -446.266     100.208     -82.641
  O     -446.657     101.607     -80.546
  H     -446.686      99.542     -82.072
  H     -442.534     100.152     -82.056
  H     -443.525     100.774     -83.354
  H     -444.018      99.338     -82.490

 6  7  8  9  10  11  12  13  14  15  25  28  32  33  34  35 0
 6-311+G(2d,p)
 ****
 36  37  40 0
 6-311+G(2d,p)
 ****
 1  2  3  4  5  16  17  18  19  20  21  22  23  24 0
 3-21G
 ****
 26  27  29  30  31  38  39 41  42  43  44  45  46  47  48 0
 3-21G
 ****


