%nproc=1
%NoSave
%Mem=1900MB
#P OB98/GEN NMR

erre ene a

0 1
  C      156.839    -366.744    -141.158
  O      156.979    -365.338    -141.211
  H      155.792    -366.998    -141.342
  H      157.126    -367.113    -140.171
  H      157.458    -367.215    -141.928
  P      158.457    -364.757    -140.981
  C      159.743    -363.067    -142.492
  O      158.534    -363.394    -141.826
  C      159.473    -362.084    -143.638
  O      158.798    -362.798    -144.718
  C      158.561    -360.909    -143.250
  O      158.908    -359.788    -144.076
  C      157.189    -361.436    -143.648
  O      156.239    -360.396    -143.679
  C      157.556    -362.105    -144.972
  N      152.981    -362.544    -147.212
  C      153.746    -361.465    -146.935
  N      154.960    -361.428    -146.347
  C      155.385    -362.670    -146.054
  C      154.723    -363.862    -146.288
  C      153.456    -363.770    -146.894
  N      152.673    -364.867    -147.177
  N      155.476    -364.938    -145.850
  C      156.575    -364.398    -145.362
  N      156.562    -363.033    -145.456
  O      159.381    -365.773    -141.807
  O      158.885    -364.640    -139.558
  H      155.358    -360.737    -143.943
  H      159.734    -366.458    -141.210
  H      153.327    -360.503    -147.218
  H      157.404    -364.945    -144.920
  H      157.740    -361.368    -145.761
  H      156.831    -362.174    -142.921
  H      158.643    -360.627    -142.195
  H      160.431    -361.729    -144.042
  H      160.183    -363.991    -142.891
  H      160.443    -362.614    -141.782
  H      151.773    -364.714    -147.596
  H      153.007    -365.787    -146.928
  P      159.757    -358.577    -143.442
  C      161.974    -357.393    -144.172
  O      160.753    -358.006    -144.562
  O      160.767    -359.354    -142.468
  O      158.967    -357.558    -142.684
  H      161.017    -358.772    -141.727
  H      162.507    -357.074    -145.043
  H      162.569    -358.097    -143.628
  H      161.766    -356.547    -143.551

 6  7  8  9  10  11  12  13  14  15  25  28  32  33  34  35 0
 6-311+G(2d,p)
 ****
 36  37  40 0
 6-311+G(2d,p)
 ****
 1  2  3  4  5  16  17  18  19  20  21  22  23  24 0
 3-21G
 ****
 26  27  29  30  31  38  39 41  42  43  44  45  46  47  48 0
 3-21G
 ****


