%nproc=1
%NoSave
%Mem=1900MB
#P OB98/GEN NMR

erre ene a

0 1
  C     -472.022    -757.752     296.874
  O     -471.204    -757.187     297.889
  P     -469.614    -757.313     297.720
  C     -469.386    -758.461     300.046
  O     -469.170    -758.558     298.628
  C     -468.825    -759.685     300.751
  O     -469.487    -760.879     300.280
  C     -467.359    -759.920     300.532
  O     -466.550    -759.128     301.414
  C     -467.235    -761.401     300.909
  O     -467.224    -761.528     302.338
  C     -468.531    -761.984     300.342
  N     -467.350    -766.252     297.788
  C     -467.346    -765.973     299.115
  N     -467.671    -764.796     299.710
  C     -467.976    -763.857     298.801
  C     -467.977    -763.990     297.427
  C     -467.658    -765.265     296.914
  N     -467.688    -765.564     295.557
  N     -468.344    -762.828     296.808
  C     -468.569    -761.972     297.817
  N     -468.371    -762.560     299.031
  O     -469.055    -756.041     298.521
  O     -469.123    -757.334     296.301
  H     -468.048    -761.108     302.672
  H     -468.185    -755.796     298.193
  H     -467.076    -766.776     299.776
  H     -468.862    -760.933     297.688
  H     -468.962    -762.750     301.015
  H     -466.310    -761.873     300.524
  H     -467.061    -759.796     299.494
  H     -469.070    -759.609     301.833
  H     -470.465    -758.392     300.242
  H     -467.623    -766.543     295.304
  H     -468.109    -764.898     294.918
  H     -468.904    -757.556     300.419
  P     -464.972    -759.151     301.149
  C     -464.436    -760.034     303.534
  O     -464.386    -760.268     302.133
  O     -464.486    -757.775     301.798
  O     -464.567    -759.270     299.713
  H     -463.639    -757.459     301.379
  H     -464.307    -760.988     304.058
  H     -465.404    -759.597     303.829
  H     -463.630    -759.360     303.844
  H     -473.052    -757.594     297.117
  H     -471.829    -758.802     296.804
  H     -471.801    -757.285     295.937

 3  4  5  6  7  8  9  10  11  12  22  25  29  30  31  32 0
 6-311+G(2d,p)
 ****
 33  36  37 0
 6-311+G(2d,p)
 ****
 1  2  13  14  15  16  17  18  19  20  21  23  24  26 0
 3-21G
 ****
 27  28  34  35  38  39  40  41  42  43  44  45  46  47  48 0
 3-21G
 ****


