%nproc=1
%NoSave
%Mem=1900MB
#P OB98/GEN NMR

erre ene a

0 1
  C      558.857     187.580     818.916
  O      560.247     187.710     818.690
  P      560.728     188.838     817.648
  C      561.547     186.843     816.176
  O      560.894     188.118     816.231
  C      562.475     186.784     814.961
  O      561.750     187.132     813.768
  C      563.659     187.737     815.023
  O      564.652     187.268     815.912
  C      564.069     187.770     813.550
  O      564.824     186.583     813.236
  C      562.701     187.725     812.835
  N      563.612     191.799     809.860
  C      564.289     190.648     810.055
  N      564.002     189.620     810.868
  C      562.855     189.871     811.547
  C      562.069     191.000     811.483
  C      562.479     192.000     810.595
  N      561.788     193.175     810.411
  N      560.995     190.902     812.344
  C      561.133     189.716     812.904
  N      562.236     189.040     812.447
  O      562.237     189.133     818.090
  O      559.891     190.073     817.644
  H      564.415     185.836     813.723
  H      562.461     190.072     817.948
  H      565.195     190.533     809.451
  H      560.456     189.302     813.645
  H      562.710     187.104     811.934
  H      564.677     188.629     813.289
  H      563.328     188.737     815.333
  H      562.823     185.748     814.863
  H      560.789     186.056     816.084
  H      562.229     193.899     809.866
  H      561.033     193.387     811.056
  H      562.099     186.694     817.108
  P      565.631     188.350     816.578
  C      567.454     187.193     815.201
  O      566.878     188.435     815.564
  O      566.232     187.534     817.813
  O      564.973     189.661     816.907
  H      566.554     186.658     817.553
  H      568.243     187.390     814.473
  H      566.701     186.535     814.742
  H      567.887     186.706     816.074
  H      558.683     186.798     819.626
  H      558.367     187.342     817.995
  H      558.470     188.501     819.298

 3  4  5  6  7  8  9  10  11  12  22  25  29  30  31  32 0
 6-311+G(2d,p)
 ****
 33  36  37 0
 6-311+G(2d,p)
 ****
 1  2  13  14  15  16  17  18  19  20  21  23  24  26 0
 3-21G
 ****
 27  28  34  35  38  39  40  41  42  43  44  45  46  47  48 0
 3-21G
 ****


