%nproc=1
%NoSave
%Mem=1900MB
#P OB98/GEN NMR

erre ene a

0 1
  C     -257.224     -82.641    -670.932
  O     -258.029     -82.426    -672.071
  H     -257.601     -83.520    -670.395
  H     -257.274     -81.779    -670.262
  H     -256.184     -82.828    -671.222
  P     -257.599     -81.297    -673.117
  C     -258.682     -82.682    -675.017
  O     -258.597     -81.408    -674.371
  C     -260.126     -82.954    -675.434
  O     -260.980     -82.993    -674.260
  C     -260.722     -81.870    -676.333
  O     -260.234     -81.982    -677.653
  C     -262.205     -82.161    -676.175
  O     -262.622     -83.238    -677.025
  C     -262.296     -82.577    -674.691
  N     -262.805     -81.501    -673.848
  C     -263.760     -81.848    -672.896
  O     -264.158     -83.010    -672.738
  N     -264.291     -80.815    -672.161
  C     -264.059     -79.487    -672.387
  O     -264.745     -78.602    -671.879
  C     -263.012     -79.169    -673.362
  C     -262.445     -80.171    -674.045
  O     -256.141     -81.270    -673.475
  O     -258.051     -79.930    -672.419
  H     -257.271     -79.497    -672.026
  H     -263.517     -83.486    -676.726
  H     -265.011     -81.071    -671.499
  H     -262.755     -78.134    -673.514
  H     -261.681     -79.966    -674.794
  H     -262.957     -83.447    -674.572
  H     -262.811     -81.289    -676.416
  H     -260.503     -80.884    -675.923
  H     -260.163     -83.941    -675.919
  H     -258.354     -83.452    -674.312
  H     -258.016     -82.690    -675.886
  P     -260.503     -80.796    -678.710
  C     -258.059     -80.551    -679.476
  O     -259.392     -80.881    -679.864
  O     -260.681     -79.438    -678.107
  O     -261.837     -81.258    -679.462
  H     -262.482     -80.509    -679.478
  H     -257.409     -80.642    -680.321
  H     -257.737     -81.218    -678.704
  H     -258.032     -79.545    -679.112

 6  7  8  9  10  11  12  13  14  15  16  27  31  32  33  34  35 0
 6-311+G(2d,p)
 ****
 36  37 0
 6-311+G(2d,p)
 ****
 1  2  3  4  5  17  18  19  20  21  22  23  24  25 0
 3-21G
 ****
 26  28  29  30  38  39  40  41  42  43  44  45 0
 3-21G
 ****


