%nproc=1
%NoSave
%Mem=1900MB
#P OB98/GEN NMR

erre ene a

0 1
  C     -418.064    -118.038     -95.739
  O     -418.756    -119.235     -95.427
  P     -418.524    -120.512     -96.365
  C     -417.559    -122.064     -94.516
  O     -417.322    -121.377     -95.738
  C     -416.445    -123.071     -94.237
  O     -416.503    -123.486     -92.846
  C     -416.529    -124.336     -95.098
  O     -415.201    -124.808     -95.378
  C     -417.181    -125.348     -94.177
  O     -416.875    -126.686     -94.565
  C     -416.589    -124.931     -92.828
  N     -418.835    -128.920     -90.691
  C     -417.871    -128.882     -91.680
  N     -417.526    -130.066     -92.232
  N     -417.294    -127.783     -92.087
  C     -417.744    -126.673     -91.451
  C     -418.682    -126.588     -90.443
  C     -419.318    -127.812     -90.012
  O     -420.195    -127.910     -89.162
  N     -418.849    -125.296     -90.021
  C     -418.047    -124.588     -90.797
  N     -417.384    -125.373     -91.703
  O     -417.876    -119.873     -97.683
  O     -419.761    -121.278     -96.694
  H     -417.366    -127.275     -93.961
  H     -418.541    -119.854     -98.401
  H     -419.256    -129.793     -90.421
  H     -417.928    -123.515     -90.763
  H     -415.572    -125.316     -92.697
  H     -418.269    -125.222     -94.195
  H     -417.985    -130.939     -92.011
  H     -417.077    -124.211     -96.037
  H     -416.859    -130.061     -92.990
  H     -415.478    -122.572     -94.375
  H     -418.509    -122.594     -94.586
  H     -417.630    -121.339     -93.698
  P     -414.994    -125.503     -96.814
  C     -415.269    -123.324     -98.209
  O     -415.792    -124.591     -97.859
  O     -415.882    -126.833     -96.710
  O     -413.569    -125.793     -97.154
  H     -415.538    -127.513     -97.321
  H     -415.034    -123.320     -99.276
  H     -414.369    -123.074     -97.644
  H     -416.031    -122.560     -98.014
  H     -418.321    -117.282     -95.027
  H     -418.339    -117.712     -96.720
  H     -417.010    -118.216     -95.705

 3  4  5  6  7  8  9  10  11  12  23  26  30  31 0
 6-311+G(2d,p)
 ****
 33  35  36  37  38 0
 6-311+G(2d,p)
 ****
 1  2  13  14  15  16  17  18  19  20  21  22  24  25 0
 3-21G
 ****
 27  28  29  32  34  39  40  41  42  43  44  45  46  47  48  49 0
 3-21G
 ****


