%nproc=1
%NoSave
%Mem=1900MB
#P OB98/GEN NMR

erre ene a

0 1
  C     -421.206     189.993     -95.469
  O     -419.853     189.853     -95.080
  P     -418.984     191.134     -94.664
  C     -418.345     193.389     -95.842
  O     -418.782     192.053     -95.949
  C     -417.176     193.618     -96.817
  O     -417.623     193.412     -98.176
  C     -416.618     195.027     -96.708
  O     -415.513     195.066     -95.820
  C     -416.253     195.360     -98.141
  O     -414.973     194.790     -98.474
  C     -417.383     194.641     -98.921
  N     -418.685     195.340     -99.074
  C     -419.017     195.905    -100.295
  O     -418.316     195.828    -101.300
  N     -420.209     196.591    -100.329
  C     -421.081     196.711     -99.279
  O     -422.013     197.520     -99.247
  C     -420.796     195.878     -98.115
  C     -419.614     195.264     -98.049
  O     -417.525     190.520     -94.408
  O     -419.488     191.888     -93.474
  H     -414.316     195.206     -97.894
  H     -417.375     190.373     -93.458
  H     -420.402     197.116    -101.174
  H     -421.538     195.843     -97.318
  H     -419.370     194.664     -97.177
  H     -417.053     194.363     -99.928
  H     -416.158     196.431     -98.286
  H     -417.407     195.722     -96.370
  H     -416.391     192.877     -96.596
  H     -418.036     193.607     -94.816
  H     -419.170     194.078     -96.078
  P     -415.086     196.450     -95.137
  C     -414.078     198.613     -96.074
  O     -414.222     197.225     -96.252
  O     -414.441     196.335     -93.788
  O     -416.458     197.267     -95.066
  H     -416.862     197.186     -94.172
  H     -413.337     198.985     -96.786
  H     -413.739     198.840     -95.055
  H     -415.037     199.109     -96.268
  H     -421.610     189.031     -95.707
  H     -421.266     190.628     -96.328
  H     -421.765     190.426     -94.666

 3  4  5  6  7  8  9  10  11  12  13  23  28  29  30  31  32 0
 6-311+G(2d,p)
 ****
 33  34 0
 6-311+G(2d,p)
 ****
 1  2  14  15  16  17  18  19  20  21  22  24  25  26  27 0
 3-21G
 ****
 35  36  37  38  39  40  41  42  43  44  45 0
 3-21G
 ****


