%nproc=1
%NoSave
%Mem=1900MB
#P OB98/GEN NMR

erre ene a

0 1
  C     -172.020      22.112     512.685
  O     -172.772      21.417     511.693
  P     -174.250      20.851     511.896
  C     -175.178      21.769     509.616
  O     -174.927      20.650     510.463
  C     -176.387      21.504     508.698
  O     -176.012      20.487     507.725
  C     -177.604      20.974     509.466
  O     -178.840      21.546     509.049
  C     -177.458      19.467     509.335
  O     -178.662      18.756     509.572
  C     -176.859      19.329     507.933
  N     -176.997      14.314     506.973
  C     -178.040      15.187     507.223
  N     -179.286      14.659     507.243
  N     -177.873      16.462     507.456
  C     -176.583      16.847     507.493
  C     -175.460      16.076     507.273
  C     -175.655      14.674     506.963
  O     -174.770      13.862     506.714
  N     -174.311      16.817     507.376
  C     -174.729      18.026     507.683
  N     -176.105      18.097     507.752
  O     -175.073      21.527     512.943
  O     -174.010      19.325     512.386
  H     -179.313      19.042     508.907
  H     -174.753      19.112     512.988
  H     -177.186      13.344     506.771
  H     -174.088      18.890     507.846
  H     -177.624      19.327     507.156
  H     -176.738      19.131     510.094
  H     -179.466      13.669     507.191
  H     -177.544      21.244     510.530
  H     -180.009      15.253     507.646
  H     -176.625      22.429     508.155
  H     -174.274      21.901     509.010
  H     -175.321      22.677     510.203
  P     -179.911      22.349     509.922
  C     -180.067      24.318     508.274
  O     -180.769      23.281     508.936
  O     -179.054      23.410     510.755
  O     -180.731      21.503     510.839
  H     -179.166      23.241     511.715
  H     -180.787      25.026     507.863
  H     -179.472      23.903     507.465
  H     -179.413      24.848     508.979
  H     -171.064      22.379     512.286
  H     -171.887      21.481     513.539
  H     -172.545      22.998     512.975

 3  4  5  6  7  8  9  10  11  12  23  26  30  31 0
 6-311+G(2d,p)
 ****
 33  35  36  37  38 0
 6-311+G(2d,p)
 ****
 1  2  13  14  15  16  17  18  19  20  21  22  24  25 0
 3-21G
 ****
 27  28  29  32  34  39  40  41  42  43  44  45  46  47  48  49 0
 3-21G
 ****


