%nproc=1
%NoSave
%Mem=1900MB
#P OB98/GEN NMR

erre ene a

0 1
  C     -164.078      29.573    -430.500
  O     -165.398      29.874    -430.905
  H     -163.727      28.712    -431.074
  H     -164.063      29.314    -429.439
  H     -163.411      30.417    -430.690
  P     -166.109      31.186    -430.321
  C     -167.592      31.793    -432.344
  O     -167.554      31.293    -431.014
  C     -167.318      30.672    -433.353
  O     -168.246      29.586    -433.101
  C     -167.485      31.104    -434.812
  O     -166.497      30.452    -435.609
  C     -168.863      30.587    -435.176
  O     -168.998      30.347    -436.575
  C     -168.958      29.321    -434.327
  N     -172.803      26.365    -435.743
  C     -171.499      26.405    -436.192
  N     -171.170      25.544    -437.179
  N     -170.594      27.222    -435.718
  C     -171.057      28.011    -434.719
  C     -172.324      28.065    -434.185
  C     -173.319      27.172    -434.733
  O     -174.495      27.101    -434.386
  N     -172.406      29.014    -433.196
  C     -171.192      29.531    -433.133
  N     -170.341      28.966    -434.045
  O     -165.288      32.434    -430.396
  O     -166.459      30.805    -428.809
  H     -169.920      30.039    -436.723
  H     -165.851      31.245    -428.187
  H     -173.462      25.724    -436.149
  H     -170.881      30.316    -432.454
  H     -168.500      28.454    -434.814
  H     -169.624      31.319    -434.879
  H     -171.810      24.873    -437.576
  H     -167.403      32.184    -434.936
  H     -170.213      25.533    -437.507
  H     -166.310      30.281    -433.171
  H     -166.827      32.569    -432.440
  H     -168.574      32.238    -432.533
  P     -165.697      31.305    -436.710
  C     -163.753      29.700    -437.204
  O     -164.944      30.291    -437.701
  O     -164.847      32.407    -436.172
  O     -166.876      31.886    -437.632
  H     -166.620      32.777    -437.945
  H     -163.342      29.048    -437.946
  H     -163.975      29.139    -436.320
  H     -163.044      30.467    -436.971

 6  7  8  9  10  11  12  13  14  15  26  29  33  34 0
 6-311+G(2d,p)
 ****
 36  38  39  40  41 0
 6-311+G(2d,p)
 ****
 1  2  3  4  5  16  17  18  19  20  21  22  23  24  25 0
 3-21G
 ****
 27  28  30  31  32  35  37  42  43  44  45  46  47 0
 3-21G
 ****
 48  49 0
 3-21G
 ****


