%nproc=1
%NoSave
%Mem=1900MB
#P OB98/GEN NMR

erre ene a

0 1
  C     -322.057    -183.336     164.870
  O     -321.488    -184.056     165.964
  P     -319.881    -184.147     166.016
  C     -319.259    -184.764     168.467
  O     -319.423    -183.738     167.500
  C     -320.569    -185.025     169.205
  O     -321.581    -185.515     168.315
  C     -320.465    -186.072     170.305
  O     -319.903    -185.538     171.496
  C     -321.930    -186.423     170.521
  O     -322.545    -185.453     171.387
  C     -322.506    -186.314     169.096
  N     -325.624    -190.241     168.342
  C     -325.810    -189.094     169.089
  N     -327.012    -188.962     169.698
  N     -324.907    -188.157     169.222
  C     -323.765    -188.413     168.534
  C     -323.462    -189.510     167.760
  C     -324.462    -190.550     167.646
  O     -324.336    -191.600     167.027
  N     -322.213    -189.403     167.213
  C     -321.773    -188.231     167.625
  N     -322.671    -187.595     168.443
  O     -319.430    -182.887     165.129
  O     -319.329    -185.426     165.488
  H     -323.505    -185.653     171.404
  H     -318.552    -183.054     164.734
  H     -326.352    -190.929     168.278
  H     -320.816    -187.799     167.357
  H     -323.472    -185.797     169.088
  H     -322.070    -187.409     170.988
  H     -327.775    -189.603     169.585
  H     -319.917    -186.958     169.959
  H     -327.174    -188.105     170.218
  H     -320.914    -184.071     169.638
  H     -318.484    -184.480     169.182
  H     -318.908    -185.675     167.960
  P     -318.331    -185.777     171.732
  C     -317.616    -183.391     172.481
  O     -317.637    -184.359     171.449
  O     -317.905    -186.676     170.485
  O     -317.994    -186.421     173.036
  H     -317.148    -187.241     170.720
  H     -317.366    -183.842     173.442
  H     -318.596    -182.906     172.544
  H     -316.862    -182.639     172.240
  H     -323.124    -183.349     164.951
  H     -321.763    -183.795     163.949
  H     -321.710    -182.324     164.890

 3  4  5  6  7  8  9  10  11  12  23  26  30  31  33  0
 6-311+G(2d,p)
 ****
 35  36  37  38 0
 6-311+G(2d,p)
 ****
 1  2  13  14  15  16  17  18  19  20  21  22  24  25  27  28  29 0
 3-21G
 ****
 32  34  39  40  41  42  43  44  45  46  47  48  49 0
 3-21G
 ****


