%nproc=1
%NoSave
%Mem=1900MB
#P OB98/GEN NMR

erre ene a

0 1
  C        2.294    -150.470     310.678
  O        3.470    -151.231     311.000
  P        3.532    -152.785     310.590
  C        2.767    -155.065     311.626
  O        2.863    -153.654     311.763
  C        1.833    -155.637     312.698
  O        2.515    -155.712     313.973
  C        0.591    -154.801     312.956
  O       -0.386    -154.970     311.945
  C        0.152    -155.331     314.320
  O       -0.610    -156.542     314.179
  C        1.505    -155.610     315.002
  N        1.854    -154.602     315.998
  C        1.345    -154.790     317.276
  O        0.594    -155.718     317.575
  N        1.711    -153.856     318.208
  C        2.459    -152.734     317.972
  O        2.732    -151.922     318.844
  C        2.896    -152.545     316.581
  C        2.577    -153.472     315.673
  O        5.091    -153.120     310.780
  O        3.087    -153.108     309.201
  H       -1.138    -156.639     314.998
  H        5.346    -153.844     310.176
  H        1.380    -153.988     319.151
  H        3.471    -151.658     316.348
  H        2.895    -153.344     314.641
  H        1.481    -156.592     315.495
  H       -0.479    -154.618     314.865
  H        0.865    -153.740     313.061
  H        1.557    -156.658     312.399
  H        3.758    -155.508     311.739
  H        2.392    -155.300     310.623
  P       -0.814    -153.654     311.126
  C       -1.977    -151.421     311.824
  O       -1.545    -152.711     312.195
  O       -1.993    -154.239     310.207
  O        0.320    -153.041     310.373
  H       -2.496    -154.940     310.660
  H       -2.300    -151.389     310.779
  H       -1.161    -150.705     311.981
  H       -2.824    -151.137     312.460
  H        2.417    -149.463     311.018
  H        1.444    -150.907     311.158
  H        2.146    -150.473     309.618

 3  4  5  6  7  8  9  10  11  12  13  23  28  29  30  31  32 0
 6-311+G(2d,p)
 ****
 33  34 0
 6-311+G(2d,p)
 ****
 1  2  14  15  16  17  18  19  20  21  22  24  25  26 0
 3-21G
 ****
 27  35  36  37  38  39  40  41  42  43  44  45 0
 3-21G
 ****


