%nproc=1
%NoSave
%Mem=1900MB
#P OB98/GEN NMR

erre ene a

0 1
  C       65.788     669.085    -677.366
  O       65.112     667.980    -676.789
  H       65.256     669.999    -677.087
  H       65.779     669.000    -678.453
  H       66.816     669.148    -676.995
  P       65.786     666.533    -676.872
  C       66.098     666.345    -674.310
  O       65.495     665.792    -675.484
  C       65.790     665.463    -673.095
  O       64.386     665.496    -672.789
  C       66.137     663.989    -673.307
  O       67.537     663.773    -673.221
  C       65.312     663.349    -672.192
  O       65.986     663.471    -670.929
  C       64.039     664.223    -672.214
  N       62.929     663.599    -672.941
  C       61.985     662.908    -672.179
  O       62.085     662.781    -670.944
  N       60.940     662.359    -672.866
  C       60.787     662.356    -674.226
  O       59.858     661.795    -674.796
  C       61.824     663.071    -674.990
  C       62.831     663.655    -674.320
  O       67.229     666.506    -677.296
  O       64.858     665.730    -677.907
  H       65.444     662.993    -670.272
  H       65.279     665.724    -678.785
  H       60.263     661.845    -672.332
  H       61.743     663.087    -676.079
  H       63.609     664.185    -674.867
  H       63.698     664.438    -671.183
  H       65.130     662.292    -672.352
  H       65.740     663.636    -674.267
  H       66.346     665.873    -672.238
  H       65.696     667.349    -674.145
  H       67.178     666.425    -674.480
  P       68.277     662.807    -674.264
  C       70.391     664.271    -674.315
  O       69.865     662.980    -674.027
  O       67.845     662.948    -675.683
  O       67.986     661.338    -673.707
  H       67.320     660.892    -674.279
  H       71.444     664.277    -674.126
  H       69.912     664.998    -673.693
  H       70.212     664.508    -675.343

 6  7  8  9  10  11  12  13  14  15  16  26  31  32  33  34  35 0
 6-311+G(2d,p)
 ****
 36  37 0
 6-311+G(2d,p)
 ****
 1  2  3  4  5  17  18  19  20  21  22  23  24  25 0
 3-21G
 ****
 27  28  29  30  38  39  40  41  42  43  44  45 0
 3-21G
 ****


