%nproc=1
%NoSave
%Mem=1900MB
#P OB98/GEN NMR

erre ene a

0 1
  C     -134.848     -68.293    -587.403
  O     -133.906     -68.987    -588.235
  P     -132.563     -68.192    -588.626
  C     -131.551     -67.134    -590.750
  O     -132.711     -67.650    -590.127
  C     -131.905     -66.152    -591.891
  O     -132.580     -66.836    -592.973
  C     -132.803     -64.996    -591.436
  O     -132.441     -63.846    -592.205
  C     -134.183     -65.456    -591.872
  O     -135.086     -64.354    -591.974
  C     -133.851     -66.171    -593.189
  N     -134.890     -67.098    -593.628
  C     -136.156     -66.566    -593.863
  O     -136.392     -65.379    -593.630
  N     -137.150     -67.408    -594.310
  C     -136.911     -68.670    -594.461
  N     -137.935     -69.445    -594.908
  C     -135.595     -69.286    -594.170
  C     -134.643     -68.444    -593.766
  O     -131.469     -69.359    -588.737
  O     -132.166     -67.170    -587.609
  H     -134.782     -63.784    -592.713
  H     -130.673     -69.127    -588.219
  H     -135.441     -70.344    -594.293
  H     -133.651     -68.794    -593.533
  H     -133.697     -65.431    -594.001
  H     -134.594     -66.172    -591.150
  H     -132.731     -64.771    -590.370
  H     -130.966     -65.747    -592.291
  H     -138.816     -68.992    -595.096
  H     -130.948     -67.950    -591.171
  H     -137.858     -70.436    -595.049
  H     -130.919     -66.650    -589.998
  P     -131.742     -62.619    -591.441
  C     -132.648     -60.458    -590.380
  O     -132.974     -61.743    -590.871
  O     -131.256     -61.716    -592.674
  O     -130.629     -62.905    -590.493
  H     -130.746     -60.950    -592.335
  H     -133.576     -59.929    -590.140
  H     -132.101     -59.883    -591.129
  H     -132.058     -60.549    -589.461
  H     -135.692     -68.924    -587.216
  H     -135.172     -67.402    -587.898
  H     -134.382     -68.036    -586.475

 3  4  5  6  7  8  9  10  11  12  13  21  23  27  28  29  30  32 0
 6-311+G(2d,p)
 ****
 34  35 0
 6-311+G(2d,p)
 ****
 1  2  14  15  16  17  18  19  20  22  24  25  26 0
 3-21G
 ****
 31  33  36  37  38  39  40  41  42  43  44  45  46 0
 3-21G
 ****


