%nproc=1
%NoSave
%Mem=1900MB
#P OB98/GEN NMR

erre ene a

0 1
  C      -75.526    -108.784     156.530
  O      -74.788    -108.089     157.514
  H      -76.528    -108.993     156.925
  H      -75.041    -109.736     156.297
  H      -75.625    -108.188     155.619
  P      -73.355    -107.483     157.120
  C      -71.812    -109.297     158.109
  O      -72.320    -107.975     158.245
  C      -70.795    -109.578     159.219
  O      -70.272    -110.921     159.084
  C      -69.579    -108.652     159.197
  O      -69.907    -107.373     159.708
  C      -68.599    -109.453     160.047
  O      -68.878    -109.282     161.445
  C      -68.917    -110.904     159.593
  N      -67.975    -111.415     158.597
  C      -66.666    -111.616     159.030
  O      -66.287    -111.347     160.171
  N      -65.800    -112.125     158.094
  C      -66.089    -112.362     156.780
  O      -65.256    -112.770     155.970
  C      -67.475    -112.093     156.376
  C      -68.342    -111.644     157.284
  O      -73.321    -106.018     156.839
  O      -72.926    -108.339     155.838
  H      -68.147    -109.712     161.934
  H      -73.095    -107.825     155.024
  H      -64.846    -112.270     158.387
  H      -67.741    -112.267     155.331
  H      -69.367    -111.439     157.002
  H      -68.901    -111.583     160.462
  H      -67.566    -109.153     159.890
  H      -69.177    -108.573     158.179
  H      -71.318    -109.513     160.184
  H      -71.319    -109.386     157.135
  H      -72.642    -110.005     158.155
  P      -69.920    -106.087     158.753
  C      -67.526    -106.094     157.842
  O      -68.431    -105.473     158.743
  O      -71.002    -105.092     159.037
  O      -70.074    -106.702     157.282
  H      -70.983    -106.546     156.948
  H      -66.571    -105.617     157.911
  H      -67.899    -106.004     156.843
  H      -67.426    -107.129     158.093

 6  7  8  9  10  11  12  13  14  15  16  26  31  32  33  34  35 0
 6-311+G(2d,p)
 ****
 36  37 0
 6-311+G(2d,p)
 ****
 1  2  3  4  5  17  18  19  20  21  22  23  24  25 0
 3-21G
 ****
 27  28  29  30  38  39  40  41  42  43  44  45 0
 3-21G
 ****


