%nproc=1
%NoSave
%Mem=1900MB
#P OB98/GEN NMR

erre ene a

0 1
  C     -657.277    -779.515     181.259
  O     -657.795    -780.713     180.733
  H     -656.950    -779.689     182.281
  H     -658.042    -778.741     181.253
  H     -656.403    -779.175     180.672
  P     -658.073    -780.827     179.162
  C     -660.634    -780.774     179.455
  O     -659.509    -780.128     178.898
  C     -661.905    -779.935     179.231
  O     -661.896    -779.433     177.864
  C     -663.219    -780.721     179.415
  O     -664.199    -779.797     179.893
  C     -663.528    -781.141     177.993
  O     -664.875    -781.530     177.853
  C     -663.095    -779.898     177.226
  N     -662.904    -780.154     175.789
  C     -663.950    -779.788     174.950
  O     -665.013    -779.315     175.365
  N     -663.780    -780.060     173.629
  C     -662.673    -780.655     173.064
  O     -662.582    -780.895     171.871
  C     -661.622    -781.074     174.013
  C     -661.771    -780.770     175.322
  O     -657.936    -782.195     178.581
  O     -657.051    -779.785     178.502
  H     -665.478    -780.823     178.183
  H     -656.785    -780.090     177.611
  H     -664.523    -779.795     172.993
  H     -660.752    -781.562     173.614
  H     -661.015    -781.054     176.021
  H     -663.848    -779.107     177.314
  H     -662.908    -782.011     177.701
  H     -663.124    -781.567     180.103
  H     -661.871    -779.058     179.889
  H     -660.468    -780.895     180.539
  H     -660.766    -781.767     178.998
  P     -664.799    -779.876     181.378
  C     -667.202    -780.605     180.778
  O     -665.982    -780.978     181.401
  O     -665.198    -778.544     181.945
  O     -663.628    -780.534     182.255
  H     -663.702    -780.237     183.183
  H     -667.903    -781.409     180.856
  H     -667.023    -780.387     179.746
  H     -667.599    -779.737     181.262

 6  7  8  9  10  11  12  13  14  15  16  26  31  32  33  34  35 0
 6-311+G(2d,p)
 ****
 36  37 0
 6-311+G(2d,p)
 ****
 1  2  3  4  5  17  18  19  20  21  22  23  24  25 0
 3-21G
 ****
 27  28  29  30  38  39  40  41  42  43  44  45 0
 3-21G
 ****


