%nproc=1
%NoSave
%Mem=1900MB
#P OB98/GEN NMR

erre ene a

0 1
  C       64.267     -55.646    -223.263
  O       64.618     -54.837    -224.371
  P       63.517     -54.383    -225.448
  C       62.963     -52.173    -226.646
  O       63.784     -52.815    -225.675
  C       62.994     -50.658    -226.441
  O       62.467     -50.364    -225.121
  C       64.379     -50.010    -226.481
  O       64.852     -49.702    -227.785
  C       64.102     -48.712    -225.724
  O       63.449     -47.775    -226.600
  C       63.137     -49.174    -224.629
  N       64.749     -47.269    -220.159
  C       64.064     -46.713    -221.186
  N       63.693     -47.280    -222.352
  C       64.056     -48.574    -222.384
  C       64.747     -49.287    -221.411
  C       65.100     -48.573    -220.252
  N       65.774     -49.151    -219.191
  N       64.950     -50.590    -221.815
  C       64.381     -50.671    -222.997
  N       63.817     -49.484    -223.384
  O       62.117     -54.754    -225.097
  O       64.013     -55.033    -226.820
  H       64.137     -47.417    -227.199
  H       63.280     -55.039    -227.469
  H       63.792     -45.670    -221.060
  H       64.352     -51.554    -223.610
  H       62.362     -48.430    -224.413
  H       65.013     -48.226    -225.358
  H       65.112     -50.603    -225.918
  H       62.326     -50.195    -227.183
  H       61.933     -52.530    -226.516
  H       65.869     -48.603    -218.355
  H       65.888     -50.157    -219.191
  H       63.297     -52.446    -227.649
  P       66.448     -49.587    -227.976
  C       68.010     -49.848    -230.068
  O       66.699     -49.695    -229.556
  O       67.241     -50.525    -227.135
  O       66.733     -48.044    -227.671
  H       66.360     -47.414    -228.318
  H       67.942     -50.065    -231.137
  H       68.526     -50.672    -229.576
  H       68.566     -48.920    -229.933
  H       65.137     -55.835    -222.670
  H       63.865     -56.574    -223.612
  H       63.534     -55.140    -222.670

 3  4  5  6  7  8  9  10  11  12  22  25  29  30  31  32 0
 6-311+G(2d,p)
 ****
 33  36  37 0
 6-311+G(2d,p)
 ****
 1  2  13  14  15  16  17  18  19  20  21  23  24  26 0
 3-21G
 ****
 27  28  34  35  38  39  40  41  42  43  44  45  46  47  48 0
 3-21G
 ****


