%nproc=1
%NoSave
%Mem=1900MB
#P OB98/GEN NMR

erre ene a

0 1
  C     -103.657    -276.606    -408.450
  O     -102.481    -276.640    -407.646
  P     -101.471    -275.395    -407.760
  C      -99.577    -277.157    -407.983
  O     -100.161    -275.965    -408.494
  C      -99.134    -278.068    -409.123
  O     -100.275    -278.510    -409.886
  C      -98.198    -277.414    -410.131
  O      -96.848    -277.398    -409.688
  C      -98.351    -278.341    -411.324
  O      -97.560    -279.527    -411.123
  C      -99.850    -278.695    -411.262
  N     -101.598    -278.121    -416.033
  C     -100.740    -279.007    -415.489
  N     -100.310    -279.091    -414.210
  C     -100.837    -278.096    -413.468
  C     -101.695    -277.096    -413.898
  C     -102.097    -277.134    -415.247
  N     -102.997    -276.243    -415.795
  N     -102.022    -276.257    -412.855
  C     -101.381    -276.748    -411.814
  N     -100.657    -277.864    -412.136
  O     -100.986    -275.185    -406.246
  O     -102.065    -274.153    -408.338
  H      -96.683    -279.237    -410.805
  H     -100.675    -274.268    -406.118
  H     -100.345    -279.760    -416.168
  H     -101.409    -276.324    -410.815
  H     -100.042    -279.740    -411.523
  H      -98.024    -277.889    -412.264
  H      -98.550    -276.407    -410.405
  H      -98.656    -278.958    -408.684
  H     -100.314    -277.687    -407.371
  H     -103.367    -276.445    -416.707
  H     -103.510    -275.639    -415.160
  H      -98.718    -276.889    -407.347
  P      -96.223    -275.965    -409.313
  C      -95.006    -276.050    -411.613
  O      -95.814    -275.307    -410.719
  O      -94.823    -276.342    -408.642
  O      -97.084    -275.133    -408.419
  H      -94.540    -275.643    -408.025
  H      -95.086    -275.602    -412.610
  H      -95.339    -277.090    -411.673
  H      -93.962    -276.013    -411.292
  H     -104.234    -277.490    -408.276
  H     -103.382    -276.558    -409.483
  H     -104.238    -275.745    -408.195

 3  4  5  6  7  8  9  10  11  12  22  25  29  30  31  32 0
 6-311+G(2d,p)
 ****
 33  36  37 0
 6-311+G(2d,p)
 ****
 1  2  13  14  15  16  17  18  19  20  21  23  24  26 0
 3-21G
 ****
 27  28  34  35  38  39  40  41  42  43  44  45  46  47  48 0
 3-21G
 ****


