%nproc=1
%NoSave
%Mem=1900MB
#P OB98/GEN NMR

erre ene a

0 1
  C     -617.019    1285.059    -255.408
  O     -616.868    1286.371    -254.850
  P     -617.690    1286.834    -253.553
  C     -618.966    1288.684    -254.790
  O     -619.065    1287.423    -254.122
  C     -620.076    1289.626    -254.310
  O     -621.354    1288.941    -254.450
  C     -620.013    1290.032    -252.853
  O     -619.185    1291.167    -252.585
  C     -621.463    1290.448    -252.603
  O     -621.714    1291.753    -253.133
  C     -622.234    1289.396    -253.392
  N     -626.298    1286.951    -251.450
  C     -626.188    1288.023    -252.281
  N     -625.064    1288.646    -252.701
  C     -623.982    1287.968    -252.305
  C     -623.912    1286.865    -251.485
  C     -625.155    1286.311    -251.071
  N     -625.263    1285.212    -250.245
  N     -622.611    1286.489    -251.247
  C     -621.900    1287.356    -251.922
  N     -622.679    1288.252    -252.602
  O     -616.924    1287.721    -252.623
  O     -618.144    1285.458    -252.878
  H     -621.661    1291.684    -254.107
  H     -618.417    1285.621    -251.924
  H     -627.140    1288.483    -252.588
  H     -620.800    1287.361    -251.966
  H     -623.150    1289.810    -253.893
  H     -621.726    1290.489    -251.548
  H     -619.776    1289.197    -252.204
  H     -620.098    1290.488    -254.975
  H     -619.113    1288.497    -255.864
  H     -626.200    1284.844    -250.102
  H     -624.440    1284.653    -250.095
  H     -617.991    1289.134    -254.626
  P     -618.470    1291.222    -251.128
  C     -619.816    1292.970    -249.748
  O     -619.641    1291.624    -250.102
  O     -617.244    1292.045    -251.096
  O     -618.204    1289.659    -250.814
  H     -619.005    1289.140    -250.649
  H     -620.766    1293.054    -249.157
  H     -619.920    1293.605    -250.625
  H     -618.997    1293.323    -249.129
  H     -616.384    1284.960    -256.263
  H     -618.037    1284.911    -255.701
  H     -616.749    1284.327    -254.676

 3  4  5  6  7  8  9  10  11  12  22  25  29  30  31  32 0
 6-311+G(2d,p)
 ****
 33  36  37 0
 6-311+G(2d,p)
 ****
 1  2  13  14  15  16  17  18  19  20  21  23  24  26 0
 3-21G
 ****
 27  28  34  35  38  39  40  41  42  43  44  45  46  47  48 0
 3-21G
 ****


