%nproc=1
%NoSave
%Mem=1900MB
#P OB98/GEN NMR

erre ene a

0 1
  C     -104.307    -278.942     283.684
  O     -105.719    -278.969     283.756
  H     -104.013    -278.478     282.738
  H     -103.912    -279.962     283.714
  H     -103.893    -278.358     284.510
  P     -106.364    -279.454     285.139
  C     -107.389    -281.469     283.800
  O     -106.728    -281.011     284.974
  C     -107.420    -282.994     283.781
  O     -106.087    -283.544     283.788
  C     -108.074    -283.613     285.005
  O     -109.472    -283.435     285.029
  C     -107.639    -285.063     284.846
  O     -108.449    -285.743     283.876
  C     -106.190    -284.889     284.326
  N     -105.194    -285.138     285.357
  C     -104.782    -286.471     285.500
  O     -105.248    -287.345     284.770
  N     -103.874    -286.778     286.482
  C     -103.398    -285.839     287.240
  N     -102.512    -286.210     288.201
  C     -103.785    -284.420     287.108
  C     -104.681    -284.146     286.159
  O     -107.801    -278.752     285.122
  O     -105.550    -279.165     286.359
  H     -109.371    -285.680     284.196
  H     -108.314    -278.934     284.317
  H     -103.357    -283.668     287.757
  H     -105.020    -283.130     285.996
  H     -105.997    -285.579     283.492
  H     -107.725    -285.623     285.779
  H     -107.609    -283.221     285.920
  H     -107.919    -283.314     282.856
  H     -102.286    -287.196     288.276
  H     -106.900    -281.080     282.902
  H     -102.102    -285.573     288.868
  H     -108.410    -281.070     283.819
  P     -110.345    -283.986     286.255
  C     -111.362    -285.718     284.645
  O     -110.714    -285.509     285.894
  O     -111.512    -283.139     286.635
  O     -109.264    -284.167     287.425
  H     -108.539    -284.785     287.217
  H     -111.557    -286.762     284.514
  H     -110.731    -285.371     283.853
  H     -112.286    -285.178     284.628

 6  7  8  9  10  11  12  13  14  15  16  26  30  31  32  33  35 0
 6-311+G(2d,p)
 ****
 37  38 0
 6-311+G(2d,p)
 ****
 1  2  3  4  5  17  18  19  20  21  22  23  24  25 0
 3-21G
 ****
 27  28  29  34  36  39  40  41  42  43  44  45  46 0
 3-21G
 ****


