%nproc=1
%NoSave
%Mem=1900MB
#P OB98/GEN NMR

erre ene a

0 1
  C      -35.657    -812.926     932.503
  O      -34.981    -812.109     933.446
  H      -35.947    -813.858     932.993
  H      -34.991    -813.160     931.668
  H      -36.554    -812.421     932.136
  P      -34.483    -810.674     932.924
  C      -31.997    -811.364     933.271
  O      -33.037    -810.435     933.577
  C      -30.727    -810.982     934.028
  O      -30.355    -809.627     933.687
  C      -30.879    -810.989     935.538
  O      -30.827    -812.300     936.088
  C      -29.710    -810.111     935.962
  O      -28.485    -810.855     936.026
  C      -29.656    -809.080     934.828
  N      -28.987    -804.838     937.607
  C      -28.174    -805.877     937.345
  N      -28.415    -806.972     936.582
  C      -29.655    -806.891     936.037
  C      -30.588    -805.893     936.209
  C      -30.219    -804.811     937.034
  N      -31.051    -803.755     937.320
  N      -31.753    -806.192     935.521
  C      -31.520    -807.341     934.938
  N      -30.257    -807.810     935.220
  O      -35.430    -809.653     933.719
  O      -34.561    -810.473     931.448
  H      -28.642    -811.586     936.650
  H      -36.154    -809.357     933.135
  H      -27.196    -805.850     937.824
  H      -32.216    -807.884     934.314
  H      -28.626    -808.860     934.519
  H      -29.891    -809.670     936.946
  H      -31.821    -810.492     935.831
  H      -29.908    -811.657     933.714
  H      -31.800    -811.355     932.191
  H      -32.330    -812.372     933.562
  H      -30.745    -803.061     937.968
  H      -32.010    -803.793     936.989
  P      -32.078    -812.812     936.941
  C      -30.559    -813.684     938.881
  O      -31.548    -813.980     937.900
  O      -32.986    -813.582     935.868
  O      -32.833    -811.731     937.632
  H      -33.930    -813.448     936.077
  H      -30.323    -814.572     939.429
  H      -30.934    -812.940     939.553
  H      -29.677    -813.317     938.399

 6  7  8  9  10  11  12  13  14  15  25  28  32  33  34  35 0
 6-311+G(2d,p)
 ****
 36  37  40 0
 6-311+G(2d,p)
 ****
 1  2  3  4  5  16  17  18  19  20  21  22  23  24 0
 3-21G
 ****
 26  27  29  30  31  38  39 41  42  43  44  45  46  47  48 0
 3-21G
 ****


