%nproc=1
%NoSave
%Mem=1900MB
#P OB98/GEN NMR

erre ene a

0 1
  C     -235.008    -329.123    -441.889
  O     -234.514    -328.763    -440.602
  P     -233.189    -327.857    -440.544
  C     -232.074    -329.810    -439.248
  O     -231.970    -328.877    -440.320
  C     -231.601    -331.192    -439.693
  O     -232.268    -331.584    -440.908
  C     -230.113    -331.287    -439.997
  O     -229.327    -331.452    -438.825
  C     -230.066    -332.541    -440.849
  O     -230.125    -333.706    -440.000
  C     -231.363    -332.424    -441.667
  N     -229.221    -333.152    -446.256
  C     -229.189    -333.880    -445.123
  N     -229.777    -333.617    -443.933
  C     -230.420    -332.435    -443.974
  C     -230.501    -331.564    -445.051
  C     -229.876    -331.967    -446.245
  N     -229.930    -331.231    -447.414
  N     -231.247    -330.451    -444.716
  C     -231.611    -330.650    -443.471
  N     -231.143    -331.843    -442.981
  O     -233.320    -327.116    -439.126
  O     -233.041    -326.888    -441.672
  H     -230.944    -333.634    -439.467
  H     -232.799    -326.293    -439.129
  H     -228.630    -334.814    -445.174
  H     -232.211    -329.963    -442.883
  H     -231.855    -333.391    -441.811
  H     -229.148    -332.624    -441.442
  H     -229.772    -330.427    -440.598
  H     -231.875    -331.912    -438.907
  H     -233.118    -329.876    -438.924
  H     -229.620    -331.665    -448.263
  H     -230.583    -330.450    -447.455
  H     -231.467    -329.448    -438.403
  P     -228.364    -330.233    -438.417
  C     -226.411    -331.682    -439.347
  O     -227.047    -330.419    -439.317
  O     -227.880    -330.626    -436.945
  O     -229.013    -328.889    -438.465
  H     -227.642    -329.830    -436.438
  H     -225.751    -331.721    -440.217
  H     -227.144    -332.492    -439.426
  H     -225.808    -331.819    -438.440
  H     -235.888    -329.722    -441.779
  H     -234.261    -329.680    -442.415
  H     -235.246    -328.237    -442.440

 3  4  5  6  7  8  9  10  11  12  22  25  29  30  31  32 0
 6-311+G(2d,p)
 ****
 33  36  37 0
 6-311+G(2d,p)
 ****
 1  2  13  14  15  16  17  18  19  20  21  23  24  26 0
 3-21G
 ****
 27  28  34  35  38  39  40  41  42  43  44  45  46  47  48 0
 3-21G
 ****


