%nproc=1
%NoSave
%Mem=1900MB
#P OB98/GEN NMR

erre ene a

0 1
  C     -753.266    -367.742     263.741
  O     -753.949    -368.222     264.884
  H     -752.242    -368.137     263.725
  H     -753.789    -368.085     262.847
  H     -753.241    -366.646     263.745
  P     -753.312    -367.839     266.311
  C     -751.504    -368.857     267.855
  O     -752.346    -369.055     266.731
  C     -751.059    -370.211     268.416
  O     -752.241    -370.915     268.872
  C     -750.325    -371.105     267.398
  O     -749.098    -371.601     267.955
  C     -751.270    -372.280     267.189
  O     -750.592    -373.505     266.966
  C     -752.080    -372.293     268.483
  N     -754.587    -376.706     268.975
  C     -753.456    -376.260     269.546
  N     -752.892    -375.036     269.449
  C     -753.645    -374.220     268.686
  C     -754.838    -374.530     268.051
  C     -755.308    -375.851     268.201
  N     -756.435    -376.327     267.574
  N     -755.316    -373.438     267.348
  C     -754.394    -372.502     267.519
  N     -753.367    -372.935     268.305
  O     -754.557    -367.974     267.315
  O     -752.703    -366.477     266.366
  H     -750.067    -373.402     266.145
  H     -754.725    -367.100     267.724
  H     -752.922    -376.978     270.164
  H     -754.418    -371.521     267.064
  H     -751.542    -372.808     269.290
  H     -751.914    -372.072     266.324
  H     -750.118    -370.587     266.458
  H     -750.424    -370.033     269.295
  H     -752.048    -368.314     268.633
  H     -756.630    -377.312     267.634
  H     -756.908    -375.721     266.912
  H     -750.633    -368.267     267.553
  P     -747.747    -371.144     267.203
  C     -746.217    -372.099     265.316
  O     -747.346    -372.313     266.163
  O     -746.638    -371.251     268.350
  O     -747.816    -369.774     266.618
  H     -746.190    -370.398     268.452
  H     -746.076    -372.953     264.687
  H     -745.344    -371.950     265.916
  H     -746.385    -371.234     264.710

 6  7  8  9  10  11  12  13  14  15  25  28  32  33  34  35 0
 6-311+G(2d,p)
 ****
 36  39  40 0
 6-311+G(2d,p)
 ****
 1  2  3  4  5  16  17  18  19  20  21  22  23  24 0
 3-21G
 ****
 26  27  29  30  31  37  38  41  42  43  44  45  46  47  48 0
 3-21G
 ****


