%nproc=1
%NoSave
%Mem=1900MB
#P OB98/GEN NMR

erre ene a

0 1
  C        6.388    -177.793    -350.279
  O        7.567    -177.252    -349.716
  H        5.985    -177.076    -350.996
  H        5.639    -177.968    -349.500
  H        6.610    -178.727    -350.802
  P        8.330    -178.081    -348.576
  C        9.107    -180.301    -349.648
  O        9.454    -178.961    -349.313
  C       10.257    -180.974    -350.409
  O       10.198    -180.523    -351.786
  C       11.635    -180.602    -349.835
  O       12.439    -181.744    -349.533
  C       12.172    -179.597    -350.847
  O       13.581    -179.523    -350.904
  C       11.498    -180.022    -352.156
  N       11.375    -178.946    -353.136
  C       12.488    -178.669    -353.930
  O       13.558    -179.270    -353.874
  N       12.333    -177.643    -354.826
  C       11.211    -176.882    -355.001
  O       11.134    -175.981    -355.824
  C       10.082    -177.201    -354.114
  C       10.212    -178.202    -353.237
  O        7.454    -178.847    -347.641
  O        9.190    -176.975    -347.801
  H       13.810    -178.843    -351.576
  H        8.774    -176.782    -346.940
  H       13.125    -177.444    -355.421
  H        9.182    -176.608    -354.215
  H        9.396    -178.468    -352.570
  H       12.058    -180.836    -352.626
  H       11.810    -178.597    -350.570
  H       11.530    -180.105    -348.864
  H       10.096    -182.057    -350.404
  H        8.205    -180.265    -350.274
  H        8.884    -180.864    -348.735
  P       12.727    -182.299    -348.065
  C       10.702    -183.479    -346.876
  O       11.780    -183.557    -347.798
  O       12.807    -181.274    -346.984
  O       14.190    -182.975    -348.199
  H       14.627    -182.860    -347.327
  H       10.194    -184.420    -346.841
  H       10.020    -182.716    -347.189
  H       11.081    -183.242    -345.904

 6  7  8  9  10  11  12  13  14  15  16  26  31  32  33  34  35 0
 6-311+G(2d,p)
 ****
 36  37 0
 6-311+G(2d,p)
 ****
 1  2  3  4  5  17  18  19  20  21  22  23  24  25 0
 3-21G
 ****
 27  28  29  30  38  39  40  41  42  43  44  45 0
 3-21G
 ****


