%nproc=1
%NoSave
%Mem=1900MB
#P OB98/GEN NMR

erre ene a

0 1
  C     -155.196     -87.931    -594.248
  O     -155.087     -88.795    -595.364
  H     -154.682     -86.994    -594.481
  H     -154.730     -88.375    -593.364
  H     -156.248     -87.715    -594.045
  P     -155.515     -90.329    -595.177
  C     -153.235     -91.513    -595.479
  O     -154.484     -91.173    -596.080
  C     -152.165     -91.788    -596.532
  O     -152.592     -92.844    -597.426
  C     -151.861     -90.607    -597.444
  O     -151.256     -89.511    -596.803
  C     -151.156     -91.281    -598.606
  O     -149.770     -91.505    -598.346
  C     -151.906     -92.636    -598.684
  N     -152.826     -92.697    -599.808
  C     -152.283     -93.086    -601.030
  O     -151.084     -93.350    -601.184
  N     -153.145     -93.131    -602.092
  C     -154.465     -92.784    -602.055
  O     -155.186     -92.830    -603.052
  C     -154.986     -92.342    -600.752
  C     -154.156     -92.315    -599.704
  O     -156.959     -90.643    -595.448
  O     -155.046     -90.678    -593.685
  H     -149.695     -91.772    -597.409
  H     -155.469     -91.514    -593.364
  H     -152.773     -93.430    -602.978
  H     -156.025     -92.053    -600.697
  H     -154.513     -92.000    -598.734
  H     -151.185     -93.461    -598.787
  H     -151.220     -90.692    -599.525
  H     -152.821     -90.231    -597.838
  H     -151.261     -92.135    -596.014
  H     -153.393     -92.412    -594.872
  H     -152.915     -90.694    -594.818
  P     -151.996     -88.123    -596.522
  C     -150.486     -86.678    -598.099
  O     -150.952     -86.932    -596.777
  O     -152.860     -88.059    -595.300
  O     -152.968     -88.007    -597.808
  H     -153.785     -87.558    -597.514
  H     -149.802     -85.856    -598.084
  H     -151.316     -86.440    -598.730
  H     -149.990     -87.548    -598.476

 6  7  8  9  10  11  12  13  14  15  16  26  31  32  33  34  35 0
 6-311+G(2d,p)
 ****
 36  37 0
 6-311+G(2d,p)
 ****
 1  2  3  4  5  17  18  19  20  21  22  23  24  25 0
 3-21G
 ****
 27  28  29  30  38  39  40  41  42  43  44  45 0
 3-21G
 ****


