%nproc=1
%NoSave
%Mem=1900MB
#P OB98/GEN NMR

erre ene a

0 1
  C     -154.820     155.184     192.593
  O     -153.666     155.475     191.823
  P     -153.865     156.443     190.554
  C     -153.292     155.241     188.302
  O     -154.248     155.488     189.322
  C     -152.949     153.749     188.271
  O     -154.152     152.960     188.331
  C     -152.209     153.304     187.015
  O     -150.827     153.594     187.124
  C     -152.528     151.811     186.989
  O     -151.662     151.083     187.883
  C     -153.978     151.786     187.484
  N     -157.485     149.033     185.097
  C     -156.539     148.652     186.031
  N     -156.566     147.355     186.414
  N     -155.655     149.464     186.544
  C     -155.742     150.727     186.057
  C     -156.621     151.226     185.121
  C     -157.628     150.325     184.603
  O     -158.548     150.636     183.851
  N     -156.389     152.550     184.862
  C     -155.387     152.860     185.663
  N     -154.971     151.796     186.424
  O     -152.374     156.921     190.228
  O     -154.805     157.590     190.762
  H     -150.738     151.189     187.595
  H     -152.205     157.808     190.602
  H     -158.156     148.367     184.749
  H     -154.945     153.841     185.744
  H     -154.187     150.910     188.106
  H     -152.384     151.379     185.995
  H     -157.202     146.666     186.046
  H     -152.636     153.789     186.130
  H     -155.872     147.055     187.097
  H     -152.356     153.522     189.168
  H     -152.382     155.816     188.514
  H     -153.699     155.568     187.343
  P     -150.021     153.883     185.767
  C     -148.445     151.872     185.290
  O     -149.712     152.465     185.090
  O     -148.590     154.379     186.291
  O     -150.655     154.896     184.874
  H     -148.244     155.070     185.693
  H     -148.554     150.786     185.252
  H     -148.016     152.150     186.257
  H     -147.767     152.192     184.493
  H     -154.555     154.535     193.401
  H     -155.550     154.704     191.975
  H     -155.227     156.093     192.984

 3  4  5  6  7  8  9  10  11  12  23  26  30  31 0
 6-311+G(2d,p)
 ****
 33  35  36  37  38 0
 6-311+G(2d,p)
 ****
 1  2  13  14  15  16  17  18  19  20  21  22  24  25 0
 3-21G
 ****
 27  28  29  32  34  39  40  41  42  43  44  45  46  47  48  49 0
 3-21G
 ****


