%nproc=1
%NoSave
%Mem=1900MB
#P OB98/GEN NMR

erre ene a

0 1
  C       86.362    -236.110     118.272
  O       87.578    -235.421     118.488
  H       86.487    -236.856     117.484
  H       86.078    -236.617     119.197
  H       85.571    -235.405     117.997
  P       88.155    -234.580     117.249
  C       87.409    -232.357     116.137
  O       87.021    -233.510     116.868
  C       86.217    -231.794     115.371
  O       85.759    -232.749     114.394
  C       84.999    -231.473     116.232
  O       85.141    -230.227     116.899
  C       83.910    -231.416     115.172
  O       83.961    -230.150     114.488
  C       84.330    -232.545     114.220
  N       79.819    -234.954     114.074
  C       80.195    -233.720     113.681
  N       81.420    -233.155     113.733
  C       82.315    -234.019     114.239
  C       82.089    -235.317     114.662
  C       80.769    -235.787     114.571
  N       80.383    -237.033     115.043
  N       83.254    -235.887     115.138
  C       84.162    -234.942     115.019
  N       83.644    -233.797     114.476
  O       88.103    -235.639     116.046
  O       89.528    -234.027     117.440
  H       83.332    -230.208     113.745
  H       88.982    -236.046     115.940
  H       79.405    -233.096     113.273
  H       85.197    -235.037     115.316
  H       84.167    -232.283     113.169
  H       82.903    -231.520     115.585
  H       84.776    -232.284     116.931
  H       86.555    -230.902     114.827
  H       88.201    -232.622     115.428
  H       79.417    -237.067     115.352
  H       81.069    -237.487     115.634
  H       87.796    -231.611     116.838
  P       84.211    -229.960     118.180
  C       84.028    -231.100     120.495
  O       84.338    -231.259     119.116
  O       82.733    -230.067     117.575
  O       84.423    -228.648     118.857
  H       82.238    -229.245     117.765
  H       84.153    -232.036     120.999
  H       83.015    -230.772     120.597
  H       84.683    -230.372     120.926

 6  7  8  9  10  11  12  13  14  15  25  28  32  33  34  35 0
 6-311+G(2d,p)
 ****
 36  39  40 0
 6-311+G(2d,p)
 ****
 1  2  3  4  5  16  17  18  19  20  21  22  23  24 0
 3-21G
 ****
 26  27  29  30  31  37  38  41  42  43  44  45  46  47  48 0
 3-21G
 ****


