%nproc=1
%NoSave
%Mem=1900MB
#P OB98/GEN NMR

erre ene a

0 1
  C      349.110     190.106    -203.719
  O      349.250     188.691    -203.912
  P      348.442     187.879    -205.033
  C      347.967     185.768    -203.627
  O      348.616     186.306    -204.775
  C      347.914     184.239    -203.672
  O      349.145     183.677    -203.173
  C      346.813     183.610    -202.830
  O      345.549     183.741    -203.457
  C      347.317     182.176    -202.706
  O      346.980     181.405    -203.871
  C      348.843     182.383    -202.612
  N      349.340     182.266    -201.247
  C      350.002     181.079    -200.922
  O      350.093     180.171    -201.752
  N      350.521     180.940    -199.660
  C      350.331     181.869    -198.778
  N      350.874     181.680    -197.546
  C      349.561     183.097    -199.051
  C      349.101     183.230    -200.294
  O      348.752     188.304    -206.432
  O      346.896     188.142    -204.701
  H      347.331     180.508    -203.719
  H      346.386     188.123    -205.534
  H      349.401     183.833    -198.279
  H      348.534     184.103    -200.583
  H      349.365     181.653    -203.240
  H      346.897     181.654    -201.842
  H      346.796     184.075    -201.834
  H      347.810     183.938    -204.723
  H      351.404     180.832    -197.392
  H      346.944     186.164    -203.593
  H      350.789     182.341    -196.788
  H      348.501     186.104    -202.730
  P      344.273     184.176    -202.593
  C      342.441     182.473    -203.175
  O      342.966     183.765    -203.421
  O      344.285     185.576    -202.078
  O      344.263     183.126    -201.382
  H      343.892     183.561    -200.589
  H      341.387     182.464    -203.460
  H      342.528     182.209    -202.117
  H      342.984     181.741    -203.781
  H      349.745     190.421    -202.918
  H      348.093     190.334    -203.478
  H      349.387     190.618    -204.617

 3  4  5  6  7  8  9  10  11  12  13  23  27  28  29  30  32 0
 6-311+G(2d,p)
 ****
 34  35 0
 6-311+G(2d,p)
 ****
 1  2  14  15  16  17  18  19  20  21  22  24  25  26 0
 3-21G
 ****
 31  33  36  37  38  39  40  41  42  43  44  45  46 0
 3-21G
 ****


