%nproc=1
%NoSave
%Mem=1900MB
#P OB98/GEN NMR

erre ene a

0 1
  C     -906.908     537.578    -311.687
  O     -907.264     536.431    -310.902
  P     -906.990     534.994    -311.583
  C     -909.007     533.902    -310.330
  O     -908.405     534.234    -311.567
  C     -910.390     533.271    -310.575
  O     -911.341     534.281    -310.976
  C     -910.399     532.211    -311.662
  O     -909.957     530.974    -311.154
  C     -911.877     532.226    -312.079
  O     -912.674     531.436    -311.153
  C     -912.233     533.711    -311.959
  N     -914.731     536.442    -315.419
  C     -915.225     535.710    -314.350
  N     -916.550     535.753    -314.138
  N     -914.455     534.992    -313.537
  C     -913.145     535.054    -313.891
  C     -912.548     535.733    -314.926
  C     -913.387     536.539    -315.772
  O     -913.008     537.282    -316.666
  N     -911.198     535.502    -314.967
  C     -910.961     534.728    -313.912
  N     -912.107     534.443    -313.211
  O     -906.121     534.244    -310.476
  O     -906.322     535.047    -312.932
  H     -912.421     530.499    -311.222
  H     -905.165     534.286    -310.712
  H     -915.373     536.982    -315.986
  H     -909.991     534.387    -313.619
  H     -913.263     533.865    -311.603
  H     -912.033     531.778    -313.048
  H     -917.206     536.240    -314.727
  H     -909.783     532.537    -312.526
  H     -916.919     535.209    -313.365
  H     -910.747     532.840    -309.610
  H     -909.131     534.815    -309.738
  H     -908.357     533.204    -309.768
  P     -909.443     529.881    -312.223
  C     -909.794     527.885    -310.578
  O     -910.121     528.487    -311.808
  O     -907.892     529.688    -311.840
  O     -909.600     530.277    -313.652
  H     -907.379     529.542    -312.659
  H     -910.640     527.298    -310.233
  H     -909.537     528.643    -309.824
  H     -908.926     527.226    -310.726
  H     -907.132     538.469    -311.139
  H     -907.465     537.572    -312.601
  H     -905.861     537.549    -311.907

 3  4  5  6  7  8  9  10  11  12  23  26  30  31 0
 6-311+G(2d,p)
 ****
 33  35  36  37  38 0
 6-311+G(2d,p)
 ****
 1  2  13  14  15  16  17  18  19  20  21  22  24  25 0
 3-21G
 ****
 27  28  29  32  34  39  40  41  42  43  44  45  46  47  48  49 0
 3-21G
 ****


