%nproc=1
%NoSave
%Mem=1900MB
#P OB98/GEN NMR

erre ene a

0 1
  C       -6.061     -95.388      31.747
  O       -6.876     -94.340      31.265
  H       -6.269     -95.536      32.811
  H       -5.006     -95.127      31.628
  H       -6.278     -96.316      31.211
  P       -6.723     -93.957      29.714
  C       -5.823     -91.538      29.974
  O       -5.525     -92.885      29.635
  C       -4.556     -90.682      29.918
  O       -3.756     -90.947      31.104
  C       -3.674     -90.958      28.692
  O       -3.111     -89.722      28.241
  C       -2.564     -91.828      29.257
  O       -1.383     -91.776      28.464
  C       -2.416     -91.226      30.652
  N        1.571     -91.615      33.699
  C        1.118     -90.549      32.946
  N        1.839     -89.408      33.008
  N        0.051     -90.597      32.193
  C       -0.588     -91.792      32.244
  C       -0.237     -92.924      32.938
  C        0.960     -92.865      33.751
  O        1.424     -93.782      34.422
  N       -1.125     -93.944      32.700
  C       -2.010     -93.427      31.865
  N       -1.728     -92.123      31.563
  O       -8.025     -93.075      29.416
  O       -6.596     -95.110      28.776
  H       -0.754     -92.441      28.819
  H       -8.305     -93.171      28.485
  H        2.405     -91.527      34.253
  H       -2.864     -93.949      31.453
  H       -1.852     -90.285      30.643
  H       -2.895     -92.872      29.314
  H        2.653     -89.286      33.591
  H       -4.207     -91.442      27.870
  H        1.516     -88.608      32.474
  H       -4.846     -89.625      29.964
  H       -6.238     -91.507      30.988
  H       -6.565     -91.146      29.271
  P       -3.726     -89.067      26.912
  C       -2.193     -90.398      25.293
  O       -3.521     -90.090      25.690
  O       -2.695     -87.886      26.584
  O       -5.114     -88.542      27.082
  H       -3.109     -87.025      26.776
  H       -2.216     -91.087      24.474
  H       -1.668     -90.839      26.115
  H       -1.694     -89.501      24.991

 6  7  8  9  10  11  12  13  14  15  26  29  33  34 0
 6-311+G(2d,p)
 ****
 36  38  39  40  41 0
 6-311+G(2d,p)
 ****
 1  2  3  4  5  16  17  18  19  20  21  22  23  24  25 0
 3-21G
 ****
 27  28  30  31  32  35  37  42  43  44  45  46  47 0
 3-21G
 ****
 48  49 0
 3-21G
 ****


