%nproc=1
%NoSave
%Mem=1900MB
#P OB98/GEN NMR

erre ene a

0 1
  C       56.815     -25.609     -44.022
  O       58.205     -25.496     -44.250
  H       56.280     -25.668     -44.973
  H       56.623     -26.523     -43.454
  H       56.455     -24.751     -43.446
  P       58.697     -24.231     -45.105
  C       58.637     -25.575     -47.332
  O       58.128     -24.479     -46.587
  C       57.763     -25.797     -48.562
  O       56.415     -26.131     -48.158
  C       57.637     -24.570     -49.456
  O       58.738     -24.421     -50.335
  C       56.365     -24.904     -50.217
  O       56.651     -25.878     -51.237
  C       55.498     -25.528     -49.112
  N       50.813     -23.486     -48.825
  C       51.319     -24.478     -49.590
  N       52.572     -24.977     -49.591
  C       53.333     -24.353     -48.679
  C       52.955     -23.330     -47.824
  C       51.625     -22.888     -47.923
  N       51.113     -21.856     -47.169
  N       54.022     -22.930     -47.044
  C       55.018     -23.710     -47.410
  N       54.660     -24.564     -48.418
  O       60.269     -24.476     -45.279
  O       58.373     -22.891     -44.535
  H       55.809     -26.069     -51.693
  H       60.708     -23.661     -45.589
  H       50.627     -24.927     -50.296
  H       56.014     -23.689     -46.987
  H       54.840     -26.319     -49.489
  H       55.930     -24.035     -50.715
  H       57.471     -23.660     -48.868
  H       58.164     -26.652     -49.120
  H       58.624     -26.472     -46.704
  H       50.198     -21.515     -47.416
  H       51.745     -21.309     -46.603
  H       59.667     -25.363     -47.635
  P       58.940     -22.988     -51.033
  C       58.297     -24.010     -53.333
  O       58.042     -23.002     -52.363
  O       60.434     -23.073     -51.596
  O       58.741     -21.820     -50.124
  H       60.861     -22.195     -51.585
  H       57.624     -23.891     -54.157
  H       58.153     -24.974     -52.892
  H       59.305     -23.924     -53.681

 6  7  8  9  10  11  12  13  14  15  25  28  32  33  34  35 0
 6-311+G(2d,p)
 ****
 36  39  40 0
 6-311+G(2d,p)
 ****
 1  2  3  4  5  16  17  18  19  20  21  22  23  24 0
 3-21G
 ****
 26  27  29  30  31  37  38  41  42  43  44  45  46  47 0
 3-21G
 ****
 48 0
 3-21G
 ****


