%nproc=1
%NoSave
%Mem=1900MB
#P OB98/GEN NMR

erre ene a

0 1
  C      -55.564     230.149     -69.906
  O      -55.769     228.764     -70.102
  P      -54.935     227.703     -69.242
  C      -53.520     226.172     -70.747
  O      -53.570     227.400     -70.030
  C      -54.148     226.339     -72.130
  O      -53.552     227.457     -72.821
  C      -53.953     225.139     -73.049
  O      -54.833     224.088     -72.700
  C      -54.220     225.766     -74.414
  O      -55.632     225.852     -74.664
  C      -53.621     227.172     -74.235
  N      -51.085     228.456     -78.472
  C      -52.402     228.276     -78.230
  N      -52.998     227.893     -77.080
  C      -52.081     227.671     -76.126
  C      -50.703     227.777     -76.235
  C      -50.203     228.216     -77.473
  N      -48.869     228.465     -77.713
  N      -50.094     227.430     -75.040
  C      -51.088     227.113     -74.235
  N      -52.303     227.305     -74.827
  O      -55.694     226.495     -68.807
  O      -54.439     228.547     -67.975
  H      -55.934     224.963     -74.924
  H      -54.797     228.147     -67.159
  H      -53.065     228.473     -79.067
  H      -50.976     226.759     -73.217
  H      -54.258     227.944     -74.682
  H      -53.777     225.196     -75.232
  H      -52.911     224.803     -73.006
  H      -55.215     226.555     -71.998
  H      -54.075     225.419     -70.177
  H      -48.639     228.914     -78.586
  H      -48.249     228.586     -76.914
  H      -52.480     225.850     -70.840
  P      -54.502     222.589     -73.154
  C      -56.049     222.046     -75.126
  O      -54.771     222.510     -74.732
  O      -55.140     221.511     -72.343
  O      -52.904     222.514     -73.064
  H      -52.635     221.607     -72.824
  H      -56.086     220.955     -75.034
  H      -56.215     222.319     -76.173
  H      -56.835     222.494     -74.513
  H      -56.203     230.701     -70.563
  H      -54.543     230.392     -70.115
  H      -55.790     230.403     -68.892

 3  4  5  6  7  8  9  10  11  12  22  25  29  30  31  32 0
 6-311+G(2d,p)
 ****
 33  36  37 0
 6-311+G(2d,p)
 ****
 1  2  13  14  15  16  17  18  19  20  21  23  24  26 0
 3-21G
 ****
 27  28  34  35  38  39  40  41  42  43  44  45  46  47  48 0
 3-21G
 ****


