%nproc=1
%NoSave
%Mem=1900MB
#P OB98/GEN NMR

erre ene a

0 1
  C       -1.096    -307.743       4.426
  O       -0.241    -308.805       4.792
  H       -1.831    -307.597       5.221
  H       -1.624    -307.999       3.502
  H       -0.539    -306.815       4.287
  P        1.132    -309.001       3.991
  C        0.276    -310.857       2.410
  O        0.753    -309.523       2.519
  C        0.430    -311.381       0.977
  O        0.056    -312.780       0.934
  C       -0.516    -310.641       0.031
  O       -0.011    -310.581      -1.300
  C       -1.765    -311.508       0.052
  O       -2.598    -311.318      -1.088
  C       -1.148    -312.903       0.155
  N       -5.419    -315.648      -0.267
  C       -4.942    -314.648      -1.087
  N       -5.714    -314.319      -2.148
  N       -3.818    -314.015      -0.878
  C       -3.188    -314.395       0.263
  C       -3.575    -315.356       1.165
  C       -4.802    -316.078       0.901
  O       -5.283    -316.965       1.604
  N       -2.687    -315.449       2.212
  C       -1.768    -314.544       1.943
  N       -2.022    -313.885       0.762
  O        1.781    -310.304       4.663
  O        2.075    -307.839       4.026
  H       -2.104    -311.630      -1.870
  H        2.749    -310.299       4.549
  H       -6.286    -316.115      -0.484
  H       -0.907    -314.329       2.562
  H       -0.873    -313.277      -0.842
  H       -2.360    -311.238       0.934
  H       -6.660    -314.653      -2.252
  H       -0.728    -309.625       0.373
  H       -5.531    -313.411      -2.584
  H        1.478    -311.321       0.663
  H       -0.783    -310.846       2.693
  H        0.800    -311.505       3.118
  P        0.685    -309.218      -1.773
  C       -1.104    -308.516      -3.556
  O       -0.465    -308.244      -2.323
  O        1.503    -309.643      -3.078
  O        1.565    -308.603      -0.732
  H        2.458    -309.690      -2.879
  H       -1.836    -307.761      -3.752
  H       -1.582    -309.472      -3.507
  H       -0.377    -308.521      -4.341

 6  7  8  9  10  11  12  13  14  15  26  29  33  34 0
 6-311+G(2d,p)
 ****
 36  38  39  40  41 0
 6-311+G(2d,p)
 ****
 1  2  3  4  5  16  17  18  19  20  21  22  23  24  25 0
 3-21G
 ****
 27  28  30  31  32  35  37  42  43  44  45  46  47 0
 3-21G
 ****
 48  49 0
 3-21G
 ****


