%nproc=1
%NoSave
%Mem=1900MB
#P OB98/GEN NMR

erre ene a

0 1
  C      -56.420      22.286     109.379
  O      -57.830      22.396     109.371
  H      -56.142      21.380     109.923
  H      -55.982      23.150     109.886
  H      -56.037      22.218     108.356
  P      -58.458      23.566     108.468
  C      -58.995      22.186     106.300
  O      -59.473      22.839     107.462
  C      -60.005      22.311     105.158
  O      -59.313      22.098     103.901
  C      -61.151      21.300     105.237
  O      -62.341      21.927     104.753
  C      -60.726      20.213     104.265
  O      -61.834      19.456     103.787
  C      -59.989      21.037     103.197
  N      -59.056      20.230     102.415
  C      -59.191      20.282     101.025
  O      -60.073      20.973     100.513
  N      -58.357      19.521     100.247
  C      -57.503      18.724     100.809
  N      -56.722      17.977      99.983
  C      -57.355      18.602     102.272
  C      -58.147      19.382     103.006
  O      -57.218      23.962     107.537
  O      -59.034      24.702     109.244
  H      -62.196      18.927     104.532
  H      -56.741      23.194     107.180
  H      -56.636      17.916     102.694
  H      -58.100      19.364     104.088
  H      -60.706      21.500     102.506
  H      -60.032      19.521     104.754
  H      -61.315      20.925     106.249
  H      -60.386      23.338     105.141
  H      -56.872      18.074      98.987
  H      -58.811      21.127     106.507
  H      -56.065      17.284     100.309
  H      -58.043      22.647     106.019
  P      -63.719      21.716     105.538
  C      -63.392      22.425     108.004
  O      -63.835      22.806     106.707
  O      -64.025      20.314     105.943
  O      -64.810      22.237     104.477
  H      -65.573      21.629     104.513
  H      -63.526      23.243     108.681
  H      -62.356      22.161     107.964
  H      -63.961      21.584     108.343

 6  7  8  9  10  11  12  13  14  15  16  26  30  31  32  33  35 0
 6-311+G(2d,p)
 ****
 37  38 0
 6-311+G(2d,p)
 ****
 1  2  3  4  5  17  18  19  20  21  22  23  24  25 0
 3-21G
 ****
 27  28  29  34  36  39  40  41  42  43  44  45  46 0
 3-21G
 ****


