%nproc=1
%NoSave
%Mem=1900MB
#P OB98/GEN NMR

erre ene a

0 1
  C     -647.440    -170.462    1006.460
  O     -647.171    -169.511    1005.451
  H     -647.684    -171.415    1005.990
  H     -648.284    -170.140    1007.073
  H     -646.554    -170.598    1007.090
  P     -646.894    -168.005    1005.942
  C     -644.650    -167.642    1004.663
  O     -645.292    -167.888    1005.906
  C     -643.788    -166.382    1004.767
  O     -642.912    -166.461    1005.912
  C     -642.865    -166.149    1003.568
  O     -643.532    -165.619    1002.437
  C     -641.903    -165.143    1004.178
  O     -642.542    -163.859    1004.268
  C     -641.679    -165.762    1005.570
  N     -640.540    -166.682    1005.624
  C     -639.503    -166.347    1006.501
  O     -639.570    -165.319    1007.190
  N     -638.395    -167.158    1006.556
  C     -638.327    -168.219    1005.825
  N     -637.205    -168.986    1005.923
  C     -639.399    -168.621    1004.893
  C     -640.461    -167.814    1004.841
  O     -647.207    -168.062    1007.509
  O     -647.618    -166.928    1005.203
  H     -642.588    -163.502    1003.367
  H     -646.930    -167.215    1007.940
  H     -639.305    -169.512    1004.283
  H     -641.287    -168.046    1004.186
  H     -641.531    -164.979    1006.334
  H     -640.993    -165.011    1003.584
  H     -642.307    -167.058    1003.306
  H     -644.455    -165.528    1004.917
  H     -636.466    -168.653    1006.524
  H     -645.420    -167.510    1003.894
  H     -637.006    -169.741    1005.284
  H     -644.017    -168.491    1004.384
  P     -643.023    -166.100    1000.993
  C     -645.338    -167.132    1000.393
  O     -643.943    -167.342    1000.558
  O     -641.612    -166.778    1001.312
  O     -642.899    -165.004     999.979
  H     -640.980    -166.634    1000.582
  H     -645.805    -168.050    1000.104
  H     -645.500    -166.395     999.634
  H     -645.759    -166.792    1001.316

 6  7  8  9  10  11  12  13  14  15  16  26  30  31  32  33  35 0
 6-311+G(2d,p)
 ****
 37  38 0
 6-311+G(2d,p)
 ****
 1  2  3  4  5  17  18  19  20  21  22  23  24  25 0
 3-21G
 ****
 27  28  29  34  36  39  40  41  42  43  44  45  46 0
 3-21G
 ****


