%nproc=1
%NoSave
%Mem=1900MB
#P OB98/GEN NMR

erre ene a

0 1
  C      -74.236     359.444    -271.756
  O      -75.445     358.712    -271.708
  H      -74.469     360.509    -271.788
  H      -73.673     359.176    -272.657
  H      -73.631     359.242    -270.865
  P      -75.321     357.128    -271.474
  C      -76.483     357.077    -269.118
  O      -75.298     356.925    -269.884
  C      -76.777     355.805    -268.317
  O      -75.562     355.391    -267.638
  C      -77.867     355.982    -267.260
  O      -78.617     354.765    -267.175
  C      -77.082     356.176    -265.976
  O      -77.846     355.841    -264.818
  C      -75.862     355.276    -266.234
  N      -74.713     355.645    -265.405
  C      -74.744     355.238    -264.070
  O      -75.712     354.617    -263.631
  N      -73.703     355.584    -263.246
  C      -72.741     356.328    -263.700
  N      -71.750     356.653    -262.830
  C      -72.688     356.815    -265.094
  C      -73.689     356.427    -265.883
  O      -73.810     356.850    -271.916
  O      -76.341     356.312    -272.205
  H      -78.640     356.418    -264.793
  H      -73.180     357.500    -271.569
  H      -71.869     357.437    -265.424
  H      -73.726     356.733    -266.923
  H      -76.107     354.223    -266.027
  H      -76.768     357.219    -265.881
  H      -78.541     356.814    -267.475
  H      -77.038     355.004    -269.021
  H      -71.838     356.317    -261.878
  H      -77.334     357.300    -269.769
  H      -70.982     357.267    -263.054
  H      -76.341     357.925    -268.440
  P      -80.161     354.754    -267.620
  C      -79.806     354.591    -270.176
  O      -80.289     355.374    -269.091
  O      -81.125     355.284    -266.609
  O      -80.437     353.193    -267.879
  H      -81.322     352.984    -267.524
  H      -79.953     355.123    -271.093
  H      -80.339     353.664    -270.212
  H      -78.762     354.398    -270.040

 6  7  8  9  10  11  12  13  14  15  16  26  30  31  32  33  35 0
 6-311+G(2d,p)
 ****
 37  38 0
 6-311+G(2d,p)
 ****
 1  2  3  4  5  17  18  19  20  21  22  23  24  25 0
 3-21G
 ****
 27  28  29  34  36  39  40  41  42  43  44  45  46 0
 3-21G
 ****


