%nproc=1
%NoSave
%Mem=1900MB
#P OB98/GEN NMR

erre ene a

0 1
  C      697.164      72.348    -188.631
  O      697.118      72.207    -190.032
  H      696.757      71.441    -188.172
  H      696.565      73.202    -188.302
  H      698.200      72.473    -188.297
  P      697.420      73.503    -190.936
  C      696.710      75.987    -190.856
  O      696.536      74.682    -190.298
  C      695.363      76.677    -191.075
  O      694.550      75.902    -191.981
  C      694.535      76.806    -189.806
  O      695.054      77.731    -188.870
  C      693.126      77.022    -190.355
  O      692.830      78.382    -190.664
  C      693.168      76.187    -191.666
  N      692.372      74.968    -191.559
  C      691.542      74.699    -192.641
  O      691.436      75.438    -193.623
  N      690.780      73.561    -192.538
  C      690.744      72.725    -191.466
  O      690.003      71.745    -191.419
  C      691.624      73.073    -190.345
  C      692.394      74.163    -190.438
  O      697.226      73.329    -192.412
  O      698.911      73.907    -190.525
  H      691.854      78.465    -190.676
  H      699.311      74.520    -191.192
  H      690.172      73.350    -193.317
  H      691.618      72.428    -189.471
  H      693.055      74.446    -189.620
  H      692.776      76.779    -192.499
  H      692.365      76.679    -189.648
  H      694.522      75.838    -189.299
  H      695.546      77.652    -191.541
  H      697.218      75.869    -191.823
  H      697.351      76.585    -190.193
  P      694.802      77.616    -187.298
  C      692.754      77.795    -185.700
  O      693.281      78.051    -186.998
  O      695.878      78.133    -186.402
  O      694.740      76.015    -187.101
  H      695.119      75.811    -186.225
  H      691.741      78.137    -185.653
  H      693.339      78.312    -184.969
  H      692.785      76.744    -185.503

 6  7  8  9  10  11  12  13  14  15  16  26  31  32  33  34  35 0
 6-311+G(2d,p)
 ****
 36  37 0
 6-311+G(2d,p)
 ****
 1  2  3  4  5  17  18  19  20  21  22  23  24  25 0
 3-21G
 ****
 27  28  29  30  38  39  40  41  42  43  44  45 0
 3-21G
 ****


