%nproc=1
%NoSave
%Mem=1900MB
#P OB98/GEN NMR

erre ene a

0 1
  C      512.305     233.380    -898.610
  O      511.112     232.745    -898.210
  H      513.155     232.773    -898.290
  H      512.378     234.366    -898.130
  H      512.331     233.490    -899.700
  P      509.739     233.469    -898.600
  C      508.759     235.751    -897.830
  O      509.460     234.569    -897.460
  C      508.553     236.621    -896.590
  O      509.814     237.204    -896.180
  C      507.615     237.802    -896.800
  O      506.241     237.419    -896.780
  C      508.008     238.708    -895.650
  O      507.341     238.345    -894.440
  C      509.530     238.471    -895.540
  N      510.507     243.470    -895.390
  C      509.753     242.674    -894.600
  N      509.550     241.342    -894.700
  C      510.251     240.838    -895.730
  C      511.079     241.516    -896.620
  C      511.191     242.913    -896.420
  N      511.939     243.721    -897.230
  N      511.602     240.657    -897.560
  C      511.113     239.476    -897.240
  N      510.301     239.529    -896.140
  O      508.631     232.342    -898.310
  O      509.658     233.971    -900.000
  H      506.496     238.835    -894.450
  H      508.372     231.912    -899.150
  H      509.228     243.178    -893.790
  H      511.317     238.549    -897.780
  H      509.842     238.384    -894.490
  H      507.755     239.750    -895.880
  H      507.862     238.299    -897.760
  H      508.195     235.981    -895.750
  H      507.777     235.483    -898.240
  H      509.338     236.290    -898.580
  H      511.927     244.715    -897.070
  H      512.361     243.334    -898.070
  P      505.176     238.463    -897.370
  C      504.431     240.868    -896.710
  O      505.029     239.636    -896.310
  O      503.791     237.673    -897.260
  O      505.459     238.917    -898.780
  H      503.212     237.904    -898.020
  H      504.412     241.542    -895.879
  H      503.431     240.687    -897.045
  H      505.001     241.300    -897.506

 6  7  8  9  10  11  12  13  14  15  25  28  32  33  34  35 0
 6-311+G(2d,p)
 ****
 36  37  40 0
 6-311+G(2d,p)
 ****
 1  2  3  4  5  16  17  18  19  20  21  22  23  24 0
 3-21G
 ****
 26  27  29  30  31  38  39 41  42  43  44  45  46  47  48 0
 3-21G
 ****


