%nproc=1
%NoSave
%Mem=1900MB
#P OB98/GEN NMR

erre ene a

0 1
  C     -617.997     362.157    -725.682
  O     -618.077     361.089    -724.753
  P     -618.342     361.374    -723.186
  C     -616.110     360.834    -721.992
  O     -616.919     361.832    -722.610
  C     -615.585     359.867    -723.045
  O     -614.660     360.554    -723.920
  C     -614.816     358.667    -722.485
  O     -615.701     357.712    -721.947
  C     -614.037     358.229    -723.723
  O     -614.878     357.456    -724.603
  C     -613.690     359.579    -724.383
  N     -612.322     360.020    -724.089
  C     -611.354     359.669    -725.031
  O     -611.636     359.022    -726.047
  N     -610.059     360.081    -724.827
  C     -609.768     360.762    -723.755
  N     -608.476     361.199    -723.627
  C     -610.750     361.094    -722.719
  C     -612.003     360.712    -722.948
  O     -618.979     360.242    -722.452
  O     -619.186     362.732    -723.167
  H     -614.316     357.186    -725.362
  H     -620.164     362.586    -723.218
  H     -610.460     361.667    -721.839
  H     -612.792     360.942    -722.242
  H     -613.822     359.501    -725.474
  H     -613.150     357.616    -723.483
  H     -614.123     358.996    -721.706
  H     -616.443     359.529    -723.659
  H     -607.887     361.096    -724.449
  H     -616.722     360.285    -721.273
  H     -608.241     361.961    -722.998
  H     -615.280     361.333    -721.456
  P     -615.124     356.696    -720.842
  C     -614.568     354.291    -721.642
  O     -614.191     355.660    -721.644
  O     -616.402     355.847    -720.411
  O     -614.467     357.381    -719.677
  H     -616.762     356.164    -719.563
  H     -613.985     353.777    -722.408
  H     -615.633     354.185    -721.871
  H     -614.332     353.847    -720.665
  H     -617.818     361.765    -726.661
  H     -617.195     362.810    -725.407
  H     -618.918     362.702    -725.679

 3  4  5  6  7  8  9  10  11  12  13  23  27  28  29  30  32 0
 6-311+G(2d,p)
 ****
 34  35 0
 6-311+G(2d,p)
 ****
 1  2  14  15  16  17  18  19  20  21  22  24  25  26 0
 3-21G
 ****
 31  33  36  37  38  39  40  41  42  43  44  45  46 0
 3-21G
 ****


