%nproc=1
%NoSave
%Mem=1900MB
#P OB98/GEN NMR

erre ene a

0 1
  C      378.747     127.021     367.234
  O      378.401     127.372     368.563
  H      377.868     127.099     366.586
  H      379.512     127.715     366.875
  H      379.146     126.005     367.204
  P      377.258     126.488     369.265
  C      374.884     125.702     368.537
  O      376.047     126.454     368.209
  C      373.753     126.080     367.580
  O      373.423     127.487     367.739
  C      374.101     125.906     366.110
  O      373.946     124.560     365.674
  C      373.084     126.823     365.459
  O      371.794     126.181     365.446
  C      373.079     128.017     366.425
  N      374.775     131.042     362.659
  C      373.760     130.148     362.710
  N      373.358     129.394     363.753
  C      374.119     129.649     364.835
  C      375.174     130.536     364.932
  C      375.505     131.253     363.773
  N      376.562     132.136     363.706
  N      375.727     130.502     366.202
  C      374.992     129.623     366.863
  N      374.027     129.056     366.076
  O      376.696     127.445     370.422
  O      377.679     125.149     369.767
  H      371.215     126.715     364.863
  H      376.156     126.933     371.053
  H      373.195     130.017     361.790
  H      375.124     129.357     367.907
  H      372.091     128.489     366.508
  H      373.325     127.064     364.422
  H      375.116     126.277     365.882
  H      372.864     125.499     367.850
  H      374.590     125.933     369.563
  H      376.809     132.489     362.794
  H      377.200     132.197     364.484
  H      375.100     124.638     368.448
  P      374.105     124.270     364.105
  C      372.495     124.285     362.050
  O      372.665     124.577     363.441
  O      374.203     122.674     364.041
  O      375.268     124.936     363.460
  H      374.768     122.390     363.306
  H      371.499     124.538     361.752
  H      372.664     123.242     361.881
  H      373.195     124.857     361.477

 6  7  8  9  10  11  12  13  14  15  25  28  32  33  34  35 0
 6-311+G(2d,p)
 ****
 36  39  40 0
 6-311+G(2d,p)
 ****
 1  2  3  4  5  16  17  18  19  20  21  22  23  24 0
 3-21G
 ****
 26  27  29  30  31  37  38  41  42  43  44  45  46  47 0
 3-21G
 ****
 48 0
 3-21G
 ****


