%nproc=1
%NoSave
%Mem=1900MB
#P OB98/GEN NMR

erre ene a

0 1
  C     -129.525     -79.239    -324.085
  O     -130.431     -78.542    -324.919
  H     -129.296     -78.613    -323.216
  H     -128.598     -79.449    -324.625
  H     -129.976     -80.176    -323.736
  P     -130.875     -79.289    -326.269
  C     -129.891     -78.402    -328.501
  O     -129.651     -79.120    -327.299
  C     -129.708     -76.904    -328.273
  O     -128.500     -76.643    -327.521
  C     -129.613     -76.079    -329.552
  O     -130.897     -75.787    -330.077
  C     -128.885     -74.840    -329.054
  O     -129.790     -73.920    -328.402
  C     -127.892     -75.432    -328.044
  N     -123.900     -73.480    -330.461
  C     -125.044     -72.867    -329.979
  N     -125.158     -71.539    -330.230
  N     -125.984     -73.490    -329.323
  C     -125.747     -74.818    -329.181
  C     -124.649     -75.539    -329.597
  C     -123.600     -74.825    -330.294
  O     -122.534     -75.303    -330.684
  N     -124.770     -76.862    -329.250
  C     -125.944     -76.948    -328.662
  N     -126.587     -75.735    -328.610
  O     -132.001     -78.322    -326.877
  O     -131.384     -80.681    -326.094
  H     -130.418     -73.571    -329.055
  H     -132.648     -78.858    -327.372
  H     -123.203     -72.943    -330.941
  H     -126.372     -77.854    -328.256
  H     -127.719     -74.761    -327.191
  H     -128.412     -74.284    -329.870
  H     -124.656     -71.093    -330.986
  H     -128.985     -76.589    -330.298
  H     -126.005     -71.088    -329.898
  H     -130.553     -76.557    -327.659
  H     -130.918     -78.592    -328.832
  H     -129.196     -78.754    -329.274
  P     -130.975     -75.156    -331.551
  C     -131.850     -72.712    -331.339
  O     -130.724     -73.577    -331.383
  O     -132.538     -75.241    -331.900
  O     -130.132     -75.845    -332.571
  H     -132.669     -75.137    -332.866
  H     -131.519     -71.701    -331.225
  H     -132.473     -72.979    -330.511
  H     -132.407     -72.805    -332.248

 6  7  8  9  10  11  12  13  14  15  26  29  33  34 0
 6-311+G(2d,p)
 ****
 36  38  39  40  41 0
 6-311+G(2d,p)
 ****
 1  2  3  4  5  16  17  18  19  20  21  22  23  24  25 0
 3-21G
 ****
 27  28  30  31  32  35  37  42  43  44  45  46  47 0
 3-21G
 ****
 48  49 0
 3-21G
 ****


