%nproc=1
%NoSave
%Mem=1900MB
#P OB98/GEN NMR

erre ene a

0 1
  C     -123.921    -207.637    -373.856
  O     -122.977    -207.534    -372.790
  P     -123.351    -206.681    -371.486
  C     -123.506    -208.991    -370.325
  O     -123.993    -207.653    -370.384
  C     -123.413    -209.444    -368.865
  O     -122.394    -208.713    -368.144
  C     -124.694    -209.199    -368.079
  O     -125.813    -209.997    -368.423
  C     -124.210    -209.264    -366.642
  O     -124.123    -210.607    -366.174
  C     -122.798    -208.638    -366.760
  N     -122.748    -207.258    -366.268
  C     -122.434    -207.101    -364.919
  O     -122.246    -208.046    -364.156
  N     -122.378    -205.808    -364.473
  C     -122.635    -204.687    -365.211
  O     -122.592    -203.553    -364.747
  C     -122.992    -204.918    -366.618
  C     -123.034    -206.173    -367.078
  O     -124.098    -205.414    -371.731
  O     -121.908    -206.361    -370.854
  H     -124.990    -211.027    -366.317
  H     -121.926    -205.437    -370.532
  H     -122.142    -205.676    -363.502
  H     -123.201    -204.056    -367.231
  H     -123.284    -206.362    -368.114
  H     -122.071    -209.221    -366.185
  H     -124.888    -208.734    -365.961
  H     -125.001    -208.161    -368.263
  H     -123.127    -210.503    -368.849
  H     -122.523    -209.047    -370.802
  H     -124.173    -209.638    -370.904
  P     -127.327    -209.500    -368.251
  C     -127.564    -209.183    -370.813
  O     -127.718    -208.622    -369.529
  O     -127.737    -208.987    -366.912
  O     -128.138    -210.865    -368.534
  H     -128.942    -210.860    -367.991
  H     -127.860    -208.439    -371.565
  H     -128.200    -210.062    -370.928
  H     -126.515    -209.451    -370.986
  H     -123.510    -208.238    -374.640
  H     -124.140    -206.660    -374.234
  H     -124.820    -208.090    -373.494

 3  4  5  6  7  8  9  10  11  12  13  23  28  29  30  31  32 0
 6-311+G(2d,p)
 ****
 33  34 0
 6-311+G(2d,p)
 ****
 1  2  14  15  16  17  18  19  20  21  22  24  25  26  27 0
 3-21G
 ****
 35  36  37  38  39  40  41  42  43  44  45 0
 3-21G
 ****


