%nproc=1
%NoSave
%Mem=1900MB
#P OB98/GEN NMR

erre ene a

0 1
  C      -44.149     -24.973      67.612
  O      -45.141     -25.507      66.752
  P      -44.734     -25.755      65.217
  C      -46.100     -23.656      64.527
  O      -44.849     -24.332      64.482
  C      -46.180     -22.564      63.458
  O      -45.075     -21.646      63.641
  C      -46.127     -23.090      62.023
  O      -46.998     -22.284      61.229
  C      -44.693     -22.826      61.602
  O      -44.570     -22.721      60.185
  C      -44.387     -21.535      62.378
  N      -42.954     -21.331      62.565
  C      -42.408     -20.160      62.034
  O      -43.112     -19.396      61.374
  N      -41.070     -19.908      62.219
  C      -40.323     -20.802      62.789
  N      -39.005     -20.507      62.951
  C      -40.837     -22.106      63.253
  C      -42.150     -22.292      63.131
  O      -45.985     -26.570      64.643
  O      -43.445     -26.485      65.026
  H      -43.662     -22.403      59.981
  H      -45.704     -27.194      63.948
  H      -40.164     -22.832      63.688
  H      -42.619     -23.209      63.465
  H      -44.797     -20.662      61.852
  H      -44.047     -23.643      61.946
  H      -46.420     -24.141      61.944
  H      -47.104     -21.995      63.620
  H      -38.675     -19.613      62.611
  H      -46.214     -23.184      65.506
  H      -38.347     -21.142      63.383
  H      -46.910     -24.381      64.401
  P      -47.501     -22.886      59.829
  C      -45.664     -21.686      58.496
  O      -46.190     -22.932      58.905
  O      -48.287     -21.633      59.207
  O      -48.359     -24.105      59.850
  H      -48.704     -21.892      58.365
  H      -44.708     -21.857      57.994
  H      -45.498     -21.038      59.360
  H      -46.349     -21.205      57.791
  H      -44.553     -24.860      68.596
  H      -43.834     -24.019      67.244
  H      -43.310     -25.637      67.645

 3  4  5  6  7  8  9  10  11  12  13  21  23  27  28  29  30  32 0
 6-311+G(2d,p)
 ****
 34  35 0
 6-311+G(2d,p)
 ****
 1  2  14  15  16  17  18  19  20  22  24  25  26 0
 3-21G
 ****
 31  33  36  37  38  39  40  41  42  43  44  45  46 0
 3-21G
 ****


