%nproc=1
%NoSave
%Mem=1900MB
#P OB98/GEN NMR

erre ene a

0 1
  C     -111.608     236.357     906.433
  O     -111.830     234.958     906.233
  P     -110.776     233.958     906.914
  C     -109.170     233.683     904.888
  O     -109.355     234.178     906.209
  C     -108.162     234.546     904.133
  O     -107.006     234.853     904.959
  C     -107.597     233.872     902.892
  O     -108.543     233.882     901.838
  C     -106.359     234.731     902.635
  O     -106.723     235.961     901.988
  C     -105.875     235.022     904.068
  N     -100.816     234.664     904.794
  C     -101.591     235.672     904.347
  N     -102.933     235.686     904.180
  C     -103.478     234.512     904.539
  C     -102.807     233.395     905.010
  C     -101.410     233.495     905.134
  N     -100.618     232.452     905.569
  N     -103.702     232.370     905.268
  C     -104.877     232.854     904.938
  N     -104.795     234.148     904.497
  O     -111.245     232.519     906.387
  O     -110.772     234.021     908.414
  H     -105.955     236.559     902.037
  H     -111.657     232.008     907.122
  H     -101.073     236.589     904.088
  H     -105.808     232.306     904.993
  H     -105.520     236.051     904.183
  H     -105.612     234.237     902.003
  H     -107.295     232.841     903.122
  H     -108.659     235.486     903.865
  H     -110.123     233.676     904.353
  H      -99.616     232.581     905.557
  H     -101.040     231.556     905.752
  H     -108.834     232.635     904.948
  P     -109.432     232.562     901.618
  C     -107.689     231.283     900.221
  O     -108.348     231.386     901.473
  O     -109.937     232.764     900.113
  O     -110.492     232.347     902.645
  H     -109.222     233.038     899.529
  H     -106.957     230.481     900.270
  H     -107.167     232.238     899.997
  H     -108.409     231.074     899.427
  H     -112.372     236.914     905.933
  H     -110.652     236.627     906.035
  H     -111.634     236.576     907.480

 3  4  5  6  7  8  9  10  11  12  22  25  29  30  31  32 0
 6-311+G(2d,p)
 ****
 33  36  37 0
 6-311+G(2d,p)
 ****
 1  2  13  14  15  16  17  18  19  20  21  23  24  26 0
 3-21G
 ****
 27  28  34  35  38  39  40  41  42  43  44  45  46  47  48 0
 3-21G
 ****


