%nproc=1
%NoSave
%Mem=1900MB
#P OB98/GEN NMR

erre ene a

0 1
  C       28.696    -305.118      -2.308
  O       29.315    -304.455      -3.398
  H       27.954    -304.447      -1.867
  H       29.442    -305.367      -1.547
  H       28.195    -306.024      -2.654
  P       30.428    -305.289      -4.200
  C       31.741    -303.137      -3.608
  O       31.569    -304.209      -4.526
  C       32.891    -302.235      -4.049
  O       32.981    -301.076      -3.202
  C       34.266    -302.897      -3.994
  O       34.485    -303.705      -5.138
  C       35.169    -301.672      -3.989
  O       35.303    -301.162      -5.331
  C       34.376    -300.668      -3.127
  N       38.107    -299.405       0.164
  C       38.093    -299.503      -1.184
  N       37.076    -299.887      -1.989
  C       35.988    -300.186      -1.266
  C       35.850    -300.133       0.112
  C       36.975    -299.710       0.841
  N       36.982    -299.602       2.216
  N       34.581    -300.517       0.494
  C       33.946    -300.747      -0.637
  N       34.763    -300.595      -1.731
  O       29.930    -306.094      -5.351
  O       31.090    -306.136      -3.013
  H       35.593    -301.897      -5.899
  H       31.157    -305.598      -2.204
  H       39.020    -299.238      -1.683
  H       32.896    -301.007      -0.721
  H       34.441    -299.650      -3.525
  H       36.175    -301.899      -3.635
  H       34.408    -303.446      -3.058
  H       32.669    -301.880      -5.065
  H       31.936    -303.529      -2.600
  H       37.871    -299.457       2.667
  H       36.181    -299.947       2.722
  H       30.805    -302.571      -3.583
  P       34.799    -305.274      -4.978
  C       37.298    -304.986      -5.509
  O       36.069    -305.576      -5.913
  O       33.639    -306.176      -5.199
  O       35.395    -305.415      -3.501
  H       35.077    -306.244      -3.086
  H       38.067    -305.254      -6.202
  H       37.559    -305.338      -4.533
  H       37.193    -303.921      -5.488

 6  7  8  9  10  11  12  13  14  15  25  28  32  33  34  35 0
 6-311+G(2d,p)
 ****
 36  39  40 0
 6-311+G(2d,p)
 ****
 1  2  3  4  5  16  17  18  19  20  21  22  23  24 0
 3-21G
 ****
 26  27  29  30  31  37  38  41  42  43  44  45  46  47 0
 3-21G
 ****
 48 0
 3-21G
 ****


