%nproc=1
%NoSave
%Mem=1900MB
#P OB98/GEN NMR

erre ene a

0 1
  C     -604.848     339.371     545.555
  O     -605.179     340.019     544.343
  H     -604.466     340.108     546.260
  H     -604.076     338.620     545.376
  H     -605.734     338.894     545.989
  P     -605.978     339.175     543.239
  C     -605.250     340.461     541.101
  O     -606.291     340.184     542.026
  C     -605.527     341.774     540.380
  O     -606.874     341.714     539.816
  C     -605.476     343.018     541.289
  O     -604.923     344.109     540.520
  C     -606.933     343.304     541.584
  O     -607.198     344.641     541.945
  C     -607.583     342.896     540.244
  N     -609.010     342.639     540.379
  C     -609.875     343.733     540.225
  O     -609.529     344.857     539.910
  N     -611.203     343.463     540.458
  C     -611.730     342.259     540.837
  O     -612.931     342.089     541.040
  C     -610.770     341.158     540.982
  C     -609.476     341.393     540.762
  O     -607.411     338.965     543.921
  O     -605.345     337.888     542.831
  H     -607.423     338.142     544.451
  H     -606.718     344.826     542.780
  H     -611.839     344.234     540.358
  H     -611.148     340.188     541.297
  H     -608.746     340.604     540.871
  H     -607.411     343.677     539.496
  H     -607.274     342.648     542.396
  H     -604.878     342.879     542.194
  H     -604.832     341.875     539.531
  H     -605.186     339.648     540.364
  H     -604.291     340.519     541.641
  P     -603.385     343.988     540.077
  C     -603.654     346.575     539.770
  O     -603.044     345.370     539.346
  O     -603.496     342.912     538.897
  O     -602.482     343.601     541.192
  H     -604.315     343.005     538.371
  H     -603.303     347.385     539.165
  H     -603.404     346.760     540.794
  H     -604.716     346.491     539.672

 6  7  8  9  10  11  12  13  14  15  16  27  31  32  33  34  35 0
 6-311+G(2d,p)
 ****
 36  37 0
 6-311+G(2d,p)
 ****
 1  2  3  4  5  17  18  19  20  21  22  23  24  25 0
 3-21G
 ****
 26  28  29  30  38  39  40  41  42  43  44  45 0
 3-21G
 ****


