%nproc=1
%NoSave
%Mem=1900MB
#P OB98/GEN NMR

erre ene a

0 1
  C      206.580     -69.583     105.951
  O      205.988     -69.836     104.690
  H      207.291     -70.383     106.173
  H      205.813     -69.565     106.730
  H      207.116     -68.630     105.932
  P      204.924     -68.756     104.166
  C      202.856     -69.522     105.541
  O      203.484     -69.454     104.268
  C      201.360     -69.772     105.363
  O      200.771     -68.689     104.603
  C      201.035     -71.038     104.586
  O      201.146     -72.205     105.382
  C      199.611     -70.748     104.134
  O      198.662     -71.064     105.160
  C      199.642     -69.237     103.883
  N      197.064     -67.579      99.798
  C      196.713     -67.711     101.097
  N      197.461     -68.151     102.126
  C      198.710     -68.440     101.716
  C      199.213     -68.352     100.431
  C      198.332     -67.895      99.439
  N      198.681     -67.784      98.112
  N      200.528     -68.778     100.395
  C      200.813     -69.110     101.639
  N      199.747     -68.920     102.473
  O      205.212     -68.701     102.593
  O      205.027     -67.410     104.798
  H      198.666     -72.038     105.249
  H      205.757     -67.919     102.387
  H      195.689     -67.437     101.335
  H      201.765     -69.495     101.980
  H      198.741     -68.734     104.262
  H      199.357     -71.333     103.252
  H      201.676     -71.110     103.701
  H      200.887     -69.790     106.353
  H      203.003     -68.575     106.070
  H      203.316     -70.330     106.121
  H      197.980     -67.514      97.446
  H      199.586     -68.124      97.817
  P      202.189     -73.331     104.906
  C      200.634     -74.508     103.170
  O      201.331     -74.588     104.407
  O      202.852     -73.837     106.269
  O      203.213     -72.856     103.931
  H      203.792     -74.057     106.120
  H      200.117     -75.428     102.992
  H      201.332     -74.332     102.378
  H      199.929     -73.704     103.209

 6  7  8  9  10  11  12  13  14  15  25  28  32  33  34  35 0
 6-311+G(2d,p)
 ****
 36  37  40 0
 6-311+G(2d,p)
 ****
 1  2  3  4  5  16  17  18  19  20  21  22  23  24 0
 3-21G
 ****
 26  27  29  30  31  38  39 41  42  43  44  45  46  47  48 0
 3-21G
 ****


