%nproc=1
%NoSave
%Mem=1900MB
#P OB98/GEN NMR

erre ene a

0 1
  C     1140.600    -343.804    -642.985
  O     1140.762    -345.164    -643.332
  H     1141.347    -343.213    -643.521
  H     1140.760    -343.678    -641.910
  H     1139.603    -343.450    -643.259
  P     1139.576    -346.166    -642.919
  C     1138.012    -345.727    -644.943
  O     1138.232    -345.554    -643.552
  C     1136.556    -345.423    -645.294
  O     1135.694    -346.484    -644.808
  C     1136.019    -344.126    -644.699
  O     1136.365    -343.005    -645.500
  C     1134.522    -344.395    -644.743
  O     1134.035    -344.214    -646.095
  C     1134.448    -345.877    -644.352
  N     1131.255    -345.698    -640.414
  C     1131.074    -345.302    -641.722
  N     1129.863    -344.773    -642.028
  N     1131.986    -345.409    -642.657
  C     1133.146    -345.930    -642.199
  C     1133.463    -346.350    -640.934
  C     1132.437    -346.245    -639.916
  O     1132.550    -346.592    -638.742
  N     1134.741    -346.821    -640.853
  C     1135.215    -346.667    -642.075
  N     1134.296    -346.120    -642.930
  O     1139.417    -345.891    -641.347
  O     1139.833    -347.607    -643.200
  H     1134.536    -344.831    -646.660
  H     1139.843    -346.621    -640.862
  H     1130.527    -345.587    -639.733
  H     1136.217    -346.932    -642.389
  H     1133.628    -346.395    -644.861
  H     1133.954    -343.709    -644.108
  H     1129.127    -344.641    -641.353
  H     1136.342    -343.997    -643.657
  H     1129.709    -344.479    -642.982
  H     1136.466    -345.418    -646.385
  H     1138.244    -346.762    -645.223
  H     1138.673    -345.047    -645.495
  P     1135.729    -341.580    -645.127
  C     1137.702    -340.777    -643.646
  O     1136.332    -341.159    -643.695
  O     1134.209    -341.948    -644.791
  O     1135.818    -340.545    -646.196
  H     1133.620    -341.580    -645.478
  H     1137.966    -340.525    -642.640
  H     1137.859    -339.929    -644.279
  H     1138.311    -341.590    -643.982

 6  7  8  9  10  11  12  13  14  15  26  29  33  34 0
 6-311+G(2d,p)
 ****
 36  38  39  40  41 0
 6-311+G(2d,p)
 ****
 1  2  3  4  5  16  17  18  19  20  21  22  23  24  25 0
 3-21G
 ****
 27  28  30  31  32  35  37  42  43  44  45  46  47 0
 3-21G
 ****
 48  49 0
 3-21G
 ****


