%nproc=1
%NoSave
%Mem=1900MB
#P OB98/GEN NMR

erre ene a

0 1
  C      -48.669     133.656     382.320
  O      -47.261     133.633     382.159
  H      -48.946     132.917     383.077
  H      -49.157     133.394     381.376
  H      -48.998     134.644     382.650
  P      -46.625     134.799     381.264
  C      -44.573     135.027     382.891
  O      -45.045     134.825     381.559
  C      -43.068     135.311     382.882
  O      -42.339     134.166     382.402
  C      -42.652     136.435     381.939
  O      -43.028     137.714     382.414
  C      -41.149     136.213     381.890
  O      -40.484     136.840     382.989
  C      -41.041     134.665     381.986
  N      -40.589     134.074     380.736
  C      -39.354     134.549     380.256
  O      -38.732     135.385     380.905
  N      -38.901     134.081     379.057
  C      -39.615     133.238     378.377
  N      -39.116     132.844     377.167
  C      -40.915     132.716     378.839
  C      -41.343     133.176     380.021
  O      -47.155     136.123     381.996
  O      -46.961     134.725     379.810
  H      -39.552     136.543     382.953
  H      -47.017     136.123     382.958
  H      -41.471     132.002     378.234
  H      -42.289     132.837     380.434
  H      -40.334     134.383     382.770
  H      -40.713     136.627     380.975
  H      -43.071     136.249     380.937
  H      -42.754     135.520     383.917
  H      -38.245     133.265     376.871
  H      -44.794     134.146     383.516
  H      -39.616     132.257     376.520
  H      -45.125     135.870     383.316
  P      -43.279     138.933     381.426
  C      -45.815     139.441     381.560
  O      -44.509     139.787     382.030
  O      -43.455     138.561     379.983
  O      -42.038     139.900     381.695
  H      -41.964     140.215     382.612
  H      -46.541     140.072     382.029
  H      -46.022     138.419     381.801
  H      -45.859     139.574     380.499

 6  7  8  9  10  11  12  13  14  15  16  26  30  31  32  33  35 0
 6-311+G(2d,p)
 ****
 37  38 0
 6-311+G(2d,p)
 ****
 1  2  3  4  5  17  18  19  20  21  22  23  24  25 0
 3-21G
 ****
 27  28  29  34  36  39  40  41  42  43  44  45  46 0
 3-21G
 ****


