%nproc=1
%NoSave
%Mem=1900MB
#P OB98/GEN NMR

erre ene a

0 1
  C     -416.453     792.988     473.357
  O     -416.134     793.306     474.717
  P     -417.351     793.248     475.774
  C     -417.480     792.209     478.158
  O     -416.723     792.990     477.231
  C     -416.559     791.398     479.073
  O     -415.785     790.410     478.343
  C     -415.542     792.263     479.819
  O     -416.163     792.870     480.937
  C     -414.483     791.216     480.212
  O     -414.856     790.527     481.417
  C     -414.501     790.264     479.011
  N     -410.439     788.121     476.845
  C     -411.222     787.675     477.911
  N     -410.884     786.490     478.447
  N     -412.237     788.352     478.385
  C     -412.469     789.521     477.736
  C     -411.778     790.038     476.673
  C     -410.648     789.310     476.146
  O     -409.940     789.628     475.205
  N     -412.340     791.241     476.247
  C     -413.278     791.486     477.149
  N     -413.434     790.435     478.034
  O     -418.095     791.878     475.417
  O     -418.273     794.419     475.676
  H     -414.158     789.873     481.628
  H     -418.957     792.074     475.003
  H     -409.664     787.564     476.532
  H     -413.874     792.362     477.182
  H     -414.454     789.212     479.332
  H     -413.518     791.698     480.396
  H     -410.098     785.906     478.134
  H     -415.113     793.004     479.136
  H     -411.444     786.141     479.230
  H     -417.190     790.860     479.796
  H     -418.159     791.546     477.616
  H     -418.120     792.883     478.744
  P     -416.904     794.273     480.699
  C     -418.655     795.551     482.125
  O     -417.509     794.755     482.111
  O     -418.211     793.847     479.850
  O     -416.103     795.297     479.959
  H     -418.340     794.483     479.111
  H     -419.222     795.360     483.059
  H     -419.316     795.327     481.271
  H     -418.374     796.609     482.102
  H     -415.570     793.061     472.757
  H     -417.189     793.674     472.993
  H     -416.838     791.991     473.305

 3  4  5  6  7  8  9  10  11  12  23  26  30  31 0
 6-311+G(2d,p)
 ****
 33  35  36  37  38 0
 6-311+G(2d,p)
 ****
 1  2  13  14  15  16  17  18  19  20  21  22  24  25 0
 3-21G
 ****
 27  28  29  32  34  39  40  41  42  43  44  45  46  47  48  49 0
 3-21G
 ****


