%nproc=1
%NoSave
%Mem=1900MB
#P OB98/GEN NMR

erre ene a

0 1
  C       25.932    -306.275    -244.699
  O       26.984    -307.237    -244.823
  P       26.889    -308.559    -243.907
  C       28.151    -308.184    -241.641
  O       26.953    -308.035    -242.386
  C       27.903    -308.970    -240.349
  O       27.248    -308.102    -239.369
  C       27.035    -310.214    -240.522
  O       27.554    -311.216    -239.633
  C       25.661    -309.756    -240.051
  O       24.836    -310.845    -239.657
  C       26.065    -308.801    -238.919
  N       25.001    -307.876    -238.553
  C       24.622    -307.843    -237.214
  O       25.090    -308.605    -236.368
  N       23.649    -306.936    -236.884
  C       22.974    -306.134    -237.766
  O       22.108    -305.334    -237.416
  C       23.332    -306.291    -239.183
  C       24.311    -307.144    -239.505
  O       28.318    -309.221    -244.161
  O       25.714    -309.418    -244.241
  H       29.038    -308.576    -244.253
  H       25.363    -311.448    -239.099
  H       23.382    -306.874    -235.914
  H       22.781    -305.714    -239.913
  H       24.587    -307.306    -240.542
  H       26.348    -309.376    -238.024
  H       25.157    -309.211    -240.851
  H       27.039    -310.601    -241.546
  H       28.880    -309.244    -239.927
  H       28.544    -307.197    -241.380
  H       28.904    -308.674    -242.266
  P       28.402    -312.436    -240.268
  C       26.331    -314.024    -240.034
  O       27.341    -313.487    -240.855
  O       28.911    -313.151    -238.921
  O       29.523    -312.026    -241.167
  H       28.204    -313.278    -238.263
  H       25.587    -314.521    -240.666
  H       25.823    -313.236    -239.458
  H       26.755    -314.760    -239.348
  H       26.120    -305.454    -245.359
  H       25.891    -305.920    -243.691
  H       24.999    -306.732    -244.955

 3  4  5  6  7  8  9  10  11  12  13  24  28  29  30  31  32 0
 6-311+G(2d,p)
 ****
 33  34 0
 6-311+G(2d,p)
 ****
 1  2  14  15  16  17  18  19  20  21  22  23  25  26  27 0
 3-21G
 ****
 35  36  37  38  39  40  41  42  43  44  45 0
 3-21G
 ****


