%nproc=1
%NoSave
%Mem=1900MB
#P OB98/GEN NMR

erre ene a

0 1
  C     -207.416      14.411     -29.319
  O     -207.830      13.666     -28.186
  P     -207.718      12.065     -28.264
  C     -207.174      11.516     -25.781
  O     -208.143      11.511     -26.821
  C     -207.844      11.788     -24.438
  O     -208.154      13.190     -24.296
  C     -209.169      11.064     -24.243
  O     -208.995       9.716     -23.840
  C     -209.784      11.879     -23.116
  O     -209.223      11.474     -21.853
  C     -209.337      13.304     -23.467
  N     -214.200      14.699     -23.437
  C     -213.449      14.091     -22.450
  N     -214.105      13.756     -21.319
  N     -212.174      13.838     -22.561
  C     -211.651      14.223     -23.752
  C     -212.293      14.835     -24.804
  C     -213.709      15.100     -24.673
  O     -214.438      15.586     -25.532
  N     -211.431      15.081     -25.841
  C     -210.270      14.620     -25.420
  N     -210.362      14.050     -24.176
  O     -206.140      11.808     -28.306
  O     -208.421      11.449     -29.427
  H     -209.614      12.056     -21.172
  H     -205.958      10.903     -28.627
  H     -215.183      14.869     -23.306
  H     -209.346      14.662     -25.985
  H     -209.058      13.876     -22.577
  H     -210.868      11.747     -23.037
  H     -215.102      13.866     -21.197
  H     -209.803      11.145     -25.136
  H     -213.596      13.250     -20.604
  H     -207.137      11.516     -23.644
  H     -206.431      12.291     -25.985
  H     -206.663      10.548     -25.761
  P     -209.485       8.585     -24.870
  C     -207.688       7.024     -23.828
  O     -209.038       7.193     -24.217
  O     -208.488       8.767     -26.108
  O     -210.917       8.696     -25.275
  H     -208.905       8.455     -26.931
  H     -207.619       6.149     -23.174
  H     -207.323       7.899     -23.282
  H     -207.066       6.854     -24.711
  H     -207.546      15.455     -29.126
  H     -208.006      14.129     -30.166
  H     -206.384      14.211     -29.520

 3  4  5  6  7  8  9  10  11  12  23  26  30  31 0
 6-311+G(2d,p)
 ****
 33  35  36  37  38 0
 6-311+G(2d,p)
 ****
 1  2  13  14  15  16  17  18  19  20  21  22  24  25 0
 3-21G
 ****
 27  28  29  32  34  39  40  41  42  43  44  45  46  47  48  49 0
 3-21G
 ****


