%nproc=1
%NoSave
%Mem=1900MB
#P OB98/GEN NMR

erre ene a

0 1
  C     -117.893      99.144     578.719
  O     -116.844      98.209     578.886
  P     -117.164      96.646     579.059
  C     -114.969      96.351     580.379
  O     -116.384      96.198     580.393
  C     -114.419      96.423     581.806
  O     -114.644      97.728     582.371
  C     -115.062      95.433     582.770
  O     -114.549      94.131     582.567
  C     -114.704      96.059     584.110
  O     -113.371      95.694     584.514
  C     -114.788      97.566     583.802
  N     -116.023      98.170     584.292
  C     -115.896      98.983     585.423
  O     -114.797      99.128     585.970
  N     -117.027      99.570     585.942
  C     -118.178      99.344     585.390
  N     -119.263      99.943     585.957
  C     -118.355      98.465     584.214
  C     -117.249      97.919     583.723
  O     -116.908      95.808     577.851
  O     -118.700      96.641     579.524
  H     -113.229      96.104     585.391
  H     -119.305      96.847     578.769
  H     -119.338      98.301     583.794
  H     -117.285      97.262     582.861
  H     -113.941      98.103     584.256
  H     -115.382      95.732     584.912
  H     -116.152      95.445     582.642
  H     -113.333      96.255     581.763
  H     -119.101     100.511     586.781
  H     -114.727      97.282     579.857
  H     -120.206      99.804     585.630
  H     -114.517      95.517     579.833
  P     -115.523      92.863     582.681
  C     -113.447      91.459     583.252
  O     -114.787      91.764     583.587
  O     -116.071      92.360     581.388
  O     -116.703      93.381     583.634
  H     -117.559      93.098     583.261
  H     -112.972      90.979     584.108
  H     -112.891      92.368     582.996
  H     -113.436      90.771     582.398
  H     -117.482     100.127     578.621
  H     -118.539      99.111     579.571
  H     -118.451      98.901     577.839

 3  4  5  6  7  8  9  10  11  12  13  23  27  28  29  30  32 0
 6-311+G(2d,p)
 ****
 34  35 0
 6-311+G(2d,p)
 ****
 1  2  14  15  16  17  18  19  20  21  22  24  25  26 0
 3-21G
 ****
 31  33  36  37  38  39  40  41  42  43  44  45  46 0
 3-21G
 ****


