%nproc=1
%NoSave
%Mem=1900MB
#P OB98/GEN NMR

erre ene a

0 1
  C     -898.980    1286.886     557.314
  O     -898.070    1286.616     556.271
  H     -898.740    1286.255     558.167
  H     -900.000    1286.674     556.997
  H     -898.910    1287.943     557.627
  P     -898.330    1287.386     554.876
  C     -898.260    1285.122     553.594
  O     -897.690    1286.398     553.775
  C     -897.700    1284.470     552.316
  O     -898.200    1285.148     551.140
  C     -896.190    1284.539     552.211
  O     -895.520    1283.559     552.998
  C     -896.020    1284.240     550.716
  O     -896.270    1282.827     550.476
  C     -897.170    1285.107     550.142
  N     -896.720    1286.478     549.783
  C     -896.090    1286.604     548.529
  O     -895.910    1285.636     547.790
  N     -895.630    1287.845     548.152
  C     -895.820    1288.856     548.962
  N     -895.330    1290.056     548.536
  C     -896.490    1288.771     550.269
  C     -896.920    1287.553     550.598
  O     -897.290    1288.599     554.920
  O     -899.750    1287.785     554.615
  H     -895.550    1282.346     550.907
  H     -897.270    1289.057     554.040
  H     -896.600    1289.625     550.892
  H     -897.410    1287.392     551.560
  H     -897.590    1284.620     549.237
  H     -895.030    1284.472     550.321
  H     -895.810    1285.528     552.392
  H     -898.080    1283.439     552.283
  H     -894.840    1290.088     547.660
  H     -899.350    1285.219     553.509
  H     -895.290    1290.898     549.124
  H     -898.030    1284.478     554.451
  P     -894.550    1284.107     554.161
  C     -892.260    1283.169     553.348
  O     -893.320    1283.060     554.272
  O     -895.400    1283.826     555.487
  O     -894.130    1285.547     554.042
  H     -895.230    1284.516     556.165
  H     -891.531    1282.413     553.551
  H     -891.807    1284.134     553.437
  H     -892.638    1283.043     552.355

 6  7  8  9  10  11  12  13  14  15  16  26  30  31  32  33  35 0
 6-311+G(2d,p)
 ****
 37  38 0
 6-311+G(2d,p)
 ****
 1  2  3  4  5  17  18  19  20  21  22  23  24  25 0
 3-21G
 ****
 27  28  29  34  36  39  40  41  42  43  44  45  46 0
 3-21G
 ****


