%nproc=1
%NoSave
%Mem=1900MB
#P OB98/GEN NMR

erre ene a

0 1
  C      110.754    -171.844    -437.317
  O      109.454    -171.544    -437.828
  P      108.736    -172.691    -438.699
  C      108.366    -173.235    -441.203
  O      108.854    -172.299    -440.252
  C      109.177    -173.190    -442.510
  O      109.097    -171.876    -443.122
  C      110.660    -173.516    -442.320
  O      111.103    -174.194    -443.499
  C      111.307    -172.141    -442.279
  O      112.699    -172.220    -442.582
  C      110.445    -171.389    -443.305
  N      110.520    -169.938    -443.169
  C      111.653    -169.308    -443.684
  O      112.570    -169.976    -444.165
  N      111.745    -167.940    -443.609
  C      110.810    -167.265    -443.016
  N      110.960    -165.917    -442.969
  C      109.622    -167.894    -442.402
  C      109.546    -169.218    -442.520
  O      107.184    -172.484    -438.369
  O      109.189    -174.069    -438.352
  H      113.040    -171.305    -442.675
  H      106.779    -173.338    -438.123
  H      108.879    -167.294    -441.901
  H      108.710    -169.768    -442.106
  H      110.757    -171.647    -444.331
  H      111.188    -171.701    -441.283
  H      110.866    -174.128    -441.438
  H      108.729    -173.906    -443.210
  H      111.783    -165.519    -443.407
  H      107.318    -173.025    -441.431
  H      110.296    -165.295    -442.534
  H      108.390    -174.236    -440.763
  P      111.786    -175.633    -443.334
  C      114.195    -176.439    -442.953
  O      113.336    -175.319    -443.055
  O      111.837    -176.139    -444.853
  O      111.130    -176.636    -442.447
  H      112.174    -177.053    -444.884
  H      115.227    -176.084    -442.886
  H      114.099    -177.079    -443.833
  H      113.965    -177.006    -442.046
  H      111.120    -171.007    -436.760
  H      111.418    -172.049    -438.130
  H      110.697    -172.700    -436.678

 3  4  5  6  7  8  9  10  11  12  13  21  23  27  28  29  30  32 0
 6-311+G(2d,p)
 ****
 34  35 0
 6-311+G(2d,p)
 ****
 1  2  14  15  16  17  18  19  20  22  24  25  26 0
 3-21G
 ****
 31  33  36  37  38  39  40  41  42  43  44  45  46 0
 3-21G
 ****


