%nproc=1
%NoSave
%Mem=1900MB
#P OB98/GEN NMR

erre ene a

0 1
  C     2389.073    -711.311    -263.012
  O     2389.608    -712.111    -264.050
  H     2389.147    -710.247    -263.312
  H     2389.656    -711.454    -262.098
  H     2388.016    -711.549    -262.832
  P     2389.250    -713.673    -264.013
  C     2388.137    -713.802    -266.356
  O     2387.958    -713.875    -264.951
  C     2387.758    -712.412    -266.878
  O     2388.610    -711.426    -266.223
  C     2387.923    -712.236    -268.396
  O     2386.864    -711.394    -268.880
  C     2389.236    -711.462    -268.512
  O     2389.341    -710.749    -269.737
  C     2389.155    -710.584    -267.263
  N     2392.484    -707.057    -268.536
  C     2391.176    -707.254    -268.952
  N     2390.704    -706.412    -269.913
  N     2390.400    -708.188    -268.479
  C     2391.008    -708.954    -267.542
  C     2392.286    -708.869    -267.039
  C     2393.134    -707.827    -267.597
  O     2394.306    -707.611    -267.277
  N     2392.519    -709.857    -266.119
  C     2391.394    -710.567    -266.063
  N     2390.440    -710.040    -266.917
  O     2388.671    -713.876    -262.528
  O     2390.388    -714.594    -264.296
  H     2390.151    -710.190    -269.700
  H     2389.396    -714.180    -261.938
  H     2393.038    -706.328    -268.959
  H     2391.217    -711.441    -265.468
  H     2388.480    -709.746    -267.410
  H     2390.074    -712.168    -268.448
  H     2391.219    -705.645    -270.296
  H     2387.925    -713.182    -268.946
  H     2389.743    -706.527    -270.200
  H     2386.721    -712.199    -266.573
  H     2387.484    -714.548    -266.838
  H     2389.187    -714.035    -266.601
  P     2385.368    -711.981    -268.859
  C     2384.096    -710.135    -267.520
  O     2384.644    -711.455    -267.532
  O     2385.590    -713.549    -268.572
  O     2384.616    -711.765    -270.128
  H     2384.914    -714.067    -269.028
  H     2383.652    -709.942    -266.566
  H     2383.351    -710.051    -268.284
  H     2384.875    -709.424    -267.701

 6  7  8  9  10  11  12  13  14  15  26  29  33  34 0
 6-311+G(2d,p)
 ****
 36  38  39  40  41 0
 6-311+G(2d,p)
 ****
 1  2  3  4  5  16  17  18  19  20  21  22  23  24  25 0
 3-21G
 ****
 27  28  30  31  32  35  37  42  43  44  45  46  47 0
 3-21G
 ****
 48  49 0
 3-21G
 ****


