%nproc=1
%NoSave
%Mem=1900MB
#P OB98/GEN NMR

erre ene a

0 1
  C      690.056     301.667     322.127
  O      689.286     300.490     321.974
  H      690.856     301.467     322.842
  H      689.435     302.478     322.514
  H      690.502     301.960     321.174
  P      688.034     300.520     320.967
  C      686.534     299.011     322.451
  O      687.274     299.124     321.246
  C      685.715     297.725     322.446
  O      684.763     297.714     321.360
  C      686.520     296.444     322.258
  O      687.270     296.067     323.401
  C      685.396     295.467     321.952
  O      684.701     295.131     323.160
  C      684.516     296.321     321.009
  N      684.809     296.093     319.591
  C      684.233     294.954     319.014
  O      683.523     294.201     319.675
  N      684.502     294.678     317.687
  C      685.289     295.461     317.018
  N      685.524     295.134     315.718
  C      685.939     296.656     317.595
  C      685.648     296.917     318.871
  O      688.353     300.805     319.534
  O      687.020     301.570     321.619
  H      683.925     294.596     322.903
  H      686.230     301.638     321.029
  H      686.608     297.251     316.998
  H      686.097     297.767     319.371
  H      683.448     296.123     321.187
  H      685.749     294.534     321.513
  H      687.175     296.517     321.369
  H      685.133     297.697     323.383
  H      685.072     294.305     315.342
  H      685.888     299.889     322.539
  H      686.185     295.638     315.133
  H      687.210     298.985     323.307
  P      688.801     295.626     323.160
  C      688.382     294.596     325.535
  O      689.320     295.041     324.563
  O      689.559     297.019     323.006
  O      689.013     294.713     321.994
  H      689.697     297.232     322.062
  H      688.905     294.242     326.399
  H      687.792     293.803     325.125
  H      687.743     295.408     325.812

 6  7  8  9  10  11  12  13  14  15  16  26  30  31  32  33  35 0
 6-311+G(2d,p)
 ****
 37  38 0
 6-311+G(2d,p)
 ****
 1  2  3  4  5  17  18  19  20  21  22  23  24  25 0
 3-21G
 ****
 27  28  29  34  36  39  40  41  42  43  44  45  46 0
 3-21G
 ****


