%nproc=1
%NoSave
%Mem=1900MB
#P OB98/GEN NMR

erre ene a

0 1
  C     -397.485     229.875    1038.563
  O     -397.163     229.994    1037.191
  H     -398.321     230.539    1038.791
  H     -396.629     230.149    1039.180
  H     -397.785     228.841    1038.787
  P     -395.882     229.171    1036.680
  C     -397.191     227.258    1035.480
  O     -396.418     227.655    1036.604
  C     -396.513     226.082    1034.775
  O     -396.229     225.025    1035.718
  C     -397.355     225.426    1033.669
  O     -397.370     226.164    1032.471
  C     -396.613     224.116    1033.520
  O     -395.378     224.340    1032.813
  C     -396.350     223.760    1035.001
  N     -397.411     222.938    1035.593
  C     -397.329     221.556    1035.377
  O     -396.408     221.080    1034.708
  N     -398.320     220.753    1035.883
  C     -399.289     221.254    1036.567
  N     -400.240     220.400    1037.045
  C     -399.413     222.703    1036.831
  C     -398.452     223.473    1036.331
  O     -394.925     229.142    1037.959
  O     -395.232     229.669    1035.430
  H     -395.605     224.482    1031.885
  H     -394.163     228.528    1037.802
  H     -400.242     223.094    1037.407
  H     -398.464     224.540    1036.489
  H     -395.388     223.220    1035.121
  H     -397.174     223.364    1032.966
  H     -398.376     225.220    1034.019
  H     -395.555     226.433    1034.374
  H     -400.168     219.426    1036.795
  H     -397.269     228.112    1034.795
  H     -401.101     220.732    1037.459
  H     -398.191     226.960    1035.789
  P     -398.471     225.758    1031.368
  C     -400.037     227.718    1032.082
  O     -399.884     226.316    1031.885
  O     -398.606     224.173    1031.564
  O     -398.119     226.121    1029.962
  H     -398.781     223.725    1030.713
  H     -401.029     227.924    1032.425
  H     -399.867     228.229    1031.157
  H     -399.330     228.055    1032.811

 6  7  8  9  10  11  12  13  14  15  16  26  30  31  32  33  35 0
 6-311+G(2d,p)
 ****
 37  38 0
 6-311+G(2d,p)
 ****
 1  2  3  4  5  17  18  19  20  21  22  23  24  25 0
 3-21G
 ****
 27  28  29  34  36  39  40  41  42  43  44  45  46 0
 3-21G
 ****


