%nproc=1
%NoSave
%Mem=1900MB
#P OB98/GEN NMR

erre ene a

0 1
  C       22.452     198.729     285.967
  O       23.313     199.832     285.765
  P       24.122     199.998     284.395
  C       23.205     202.252     283.605
  O       23.203     200.847     283.389
  C       23.229     203.018     282.282
  O       23.104     204.443     282.555
  C       24.498     202.821     281.446
  O       24.104     202.874     280.070
  C       25.318     204.057     281.786
  O       26.310     204.350     280.809
  C       24.209     205.096     281.894
  N       27.803     208.682     282.478
  C       27.731     207.612     281.659
  N       26.748     206.690     281.579
  C       25.773     206.954     282.466
  C       25.726     207.990     283.384
  C       26.802     208.896     283.363
  N       26.880     210.012     284.167
  N       24.587     207.893     284.162
  C       23.964     206.822     283.716
  N       24.608     206.263     282.648
  O       24.668     198.732     283.820
  O       25.298     201.016     284.760
  H       25.876     204.405     279.938
  H       26.150     200.535     284.823
  H       28.560     207.483     280.970
  H       23.047     206.413     284.125
  H       23.862     205.435     280.911
  H       25.820     203.911     282.749
  H       25.032     201.891     281.660
  H       22.339     202.728     281.705
  H       24.098     202.507     284.180
  H       27.622     210.664     283.975
  H       26.037     210.339     284.635
  H       22.323     202.540     284.193
  P       24.827     201.926     278.995
  C       22.698     200.498     279.056
  O       24.118     200.496     279.103
  O       26.316     201.911     279.057
  O       24.295     202.489     277.589
  H       24.881     202.172     276.871
  H       22.305     200.757     280.039
  H       22.351     199.498     278.780
  H       22.335     201.215     278.315
  H       22.007     198.797     286.938
  H       23.013     197.821     285.895
  H       21.685     198.734     285.221

 3  4  5  6  7  8  9  10  11  12  22  25  29  30  31  32 0
 6-311+G(2d,p)
 ****
 33  36  37 0
 6-311+G(2d,p)
 ****
 1  2  13  14  15  16  17  18  19  20  21  23  24  26 0
 3-21G
 ****
 27  28  34  35  38  39  40  41  42  43  44  45  46  47  48 0
 3-21G
 ****


