%nproc=1
%NoSave
%Mem=1900MB
#P OB98/GEN NMR

erre ene a

0 1
  C      143.720    -123.931     138.812
  O      144.498    -122.858     138.319
  H      142.670    -123.627     138.823
  H      144.027    -124.170     139.833
  H      143.825    -124.814     138.173
  P      146.014    -123.193     137.908
  C      147.229    -122.310     140.025
  O      146.936    -122.107     138.650
  C      147.862    -121.055     140.621
  O      148.043    -121.210     142.045
  C      149.233    -120.709     140.048
  O      149.124    -119.988     138.827
  C      149.788    -119.828     141.155
  O      149.195    -118.513     141.074
  C      149.287    -120.548     142.415
  N      153.943    -121.353     144.261
  C      153.380    -120.200     143.747
  N      154.174    -119.108     143.714
  N      152.153    -120.122     143.302
  C      151.483    -121.299     143.375
  C      151.935    -122.508     143.855
  C      153.286    -122.574     144.360
  O      153.830    -123.570     144.836
  N      150.970    -123.475     143.770
  C      149.945    -122.860     143.216
  N      150.206    -121.538     142.953
  O      146.067    -122.748     136.370
  O      146.420    -124.617     138.077
  H      149.360    -118.181     140.173
  H      146.019    -123.546     135.810
  H      154.896    -121.360     144.581
  H      148.992    -123.321     142.991
  H      149.058    -119.851     143.228
  H      150.868    -119.693     141.086
  H      155.135    -119.103     144.019
  H      149.863    -121.601     139.936
  H      153.781    -118.250     143.344
  H      147.161    -120.223     140.471
  H      147.925    -123.149     140.122
  H      146.301    -122.547     140.555
  P      150.033    -120.449     137.589
  C      152.319    -119.649     138.516
  O      151.301    -119.462     137.543
  O      149.160    -119.995     136.326
  O      150.347    -121.905     137.537
  H      148.823    -120.783     135.854
  H      153.094    -118.927     138.365
  H      152.726    -120.634     138.421
  H      151.904    -119.527     139.495

 6  7  8  9  10  11  12  13  14  15  26  29  33  34 0
 6-311+G(2d,p)
 ****
 36  38  39  40  41 0
 6-311+G(2d,p)
 ****
 1  2  3  4  5  16  17  18  19  20  21  22  23  24  25 0
 3-21G
 ****
 27  28  30  31  32  35  37  42  43  44  45  46  47 0
 3-21G
 ****
 48  49 0
 3-21G
 ****


