%nproc=1
%NoSave
%Mem=1900MB
#P OB98/GEN NMR

erre ene a

0 1
  C      124.277     241.692    -157.785
  O      125.603     242.023    -158.158
  H      124.305     241.122    -156.852
  H      123.817     241.075    -158.561
  H      123.685     242.599    -157.630
  P      125.765     243.055    -159.372
  C      127.480     244.554    -158.070
  O      126.232     244.462    -158.745
  C      128.293     245.719    -158.632
  O      127.584     246.964    -158.476
  C      129.611     245.965    -157.914
  O      130.581     244.983    -158.207
  C      129.966     247.348    -158.442
  O      130.630     247.278    -159.710
  C      128.575     248.012    -158.588
  N      128.378     249.070    -157.610
  C      128.954     250.306    -157.941
  O      129.559     250.441    -159.003
  N      128.860     251.332    -157.040
  C      128.272     251.142    -155.899
  N      128.242     252.193    -155.037
  C      127.651     249.853    -155.512
  C      127.742     248.871    -156.409
  O      124.246     243.330    -159.796
  O      126.634     242.580    -160.488
  H      129.950     247.009    -160.363
  H      123.665     243.546    -159.048
  H      127.159     249.750    -154.557
  H      127.317     247.892    -156.207
  H      128.459     248.447    -159.592
  H      130.637     247.880    -157.763
  H      129.441     246.046    -156.831
  H      128.453     245.540    -159.705
  H      128.727     253.041    -155.318
  H      128.039     243.619    -158.167
  H      127.882     252.137    -154.096
  H      127.273     244.710    -157.007
  P      131.746     244.626    -157.165
  C      130.836     242.251    -156.746
  O      131.146     243.513    -156.168
  O      132.369     245.793    -156.480
  O      132.770     243.765    -158.048
  H      132.392     242.954    -158.436
  H      130.448     241.599    -155.992
  H      131.723     241.823    -157.165
  H      130.104     242.381    -157.516

 6  7  8  9  10  11  12  13  14  15  16  26  30  31  32  33  35 0
 6-311+G(2d,p)
 ****
 37  38 0
 6-311+G(2d,p)
 ****
 1  2  3  4  5  17  18  19  20  21  22  23  24  25 0
 3-21G
 ****
 27  28  29  34  36  39  40  41  42  43  44  45  46 0
 3-21G
 ****


