%nproc=1
%NoSave
%Mem=1900MB
#P OB98/GEN NMR

erre ene a

0 1
  C      565.111     306.809    1128.096
  O      564.464     307.027    1126.833
  P      565.123     306.583    1125.438
  C      567.097     308.225    1125.701
  O      566.712     306.876    1125.500
  C      568.438     308.538    1125.041
  O      569.530     307.904    1125.766
  C      568.548     308.073    1123.585
  O      567.891     308.945    1122.726
  C      570.078     308.019    1123.416
  O      570.629     309.330    1123.154
  C      570.546     307.520    1124.819
  N      574.119     303.855    1124.621
  C      574.212     305.223    1124.601
  N      573.210     306.112    1124.637
  C      572.022     305.496    1124.762
  C      571.766     304.152    1124.818
  C      572.895     303.294    1124.758
  N      572.821     301.918    1124.770
  N      570.430     303.869    1124.936
  C      569.860     305.080    1124.970
  N      570.791     306.094    1124.862
  O      564.457     307.157    1124.237
  O      565.041     304.986    1125.442
  H      570.177     309.668    1122.370
  H      564.989     304.660    1124.532
  H      575.211     305.621    1124.496
  H      568.785     305.252    1125.045
  H      571.480     308.026    1125.131
  H      570.389     307.361    1122.608
  H      568.151     307.055    1123.504
  H      568.606     309.616    1125.094
  H      567.174     308.415    1126.800
  H      573.664     301.379    1124.692
  H      571.902     301.485    1124.797
  H      566.330     308.889    1125.297
  P      566.403     308.643    1122.241
  C      567.040     306.316    1121.316
  O      566.222     307.047    1122.244
  O      565.969     309.340    1120.986
  O      565.497     309.074    1123.502
  H      564.623     309.386    1123.190
  H      566.609     306.377    1120.314
  H      567.088     305.289    1121.646
  H      568.067     306.720    1121.316
  H      564.491     307.183    1128.884
  H      566.051     307.320    1128.108
  H      565.273     305.761    1128.237

 3  4  5  6  7  8  9  10  11  12  22  25  29  30  31  32 0
 6-311+G(2d,p)
 ****
 33  36  37 0
 6-311+G(2d,p)
 ****
 1  2  13  14  15  16  17  18  19  20  21  23  24  26 0
 3-21G
 ****
 27  28  34  35  38  39  40  41  42  43  44  45  46  47  48 0
 3-21G
 ****


