%nproc=1
%NoSave
%Mem=1900MB
#P OB98/GEN NMR

erre ene a

0 1
  C     -136.703     -43.050     332.122
  O     -137.879     -42.457     332.641
  P     -138.794     -41.513     331.724
  C     -137.336     -39.432     332.193
  O     -137.815     -40.347     331.205
  C     -136.412     -38.389     331.570
  O     -135.257     -39.028     330.969
  C     -137.052     -37.570     330.462
  O     -137.905     -36.581     331.004
  C     -135.821     -37.026     329.743
  O     -135.307     -35.863     330.409
  C     -134.831     -38.208     329.867
  N     -134.735     -38.973     328.627
  C     -134.553     -38.226     327.457
  O     -134.523     -37.000     327.505
  N     -134.465     -38.891     326.254
  C     -134.568     -40.185     326.229
  N     -134.480     -40.786     325.007
  C     -134.786     -41.007     327.429
  C     -134.860     -40.342     328.587
  O     -140.068     -41.050     332.347
  O     -139.019     -42.401     330.402
  H     -135.061     -36.151     331.315
  H     -139.655     -43.134     330.566
  H     -134.879     -42.081     327.356
  H     -135.025     -40.866     329.520
  H     -133.830     -37.840     330.124
  H     -136.040     -36.736     328.710
  H     -137.608     -38.233     329.783
  H     -136.057     -37.725     332.375
  H     -134.365     -40.183     324.202
  H     -136.785     -40.003     332.951
  H     -134.583     -41.779     324.867
  H     -138.190     -38.952     332.680
  P     -138.983     -35.854     330.069
  C     -137.380     -33.898     329.616
  O     -138.189     -34.915     329.040
  O     -140.117     -35.197     330.785
  O     -139.516     -37.038     329.123
  H     -140.491     -36.977     329.055
  H     -136.659     -33.559     328.872
  H     -136.841     -34.275     330.494
  H     -138.007     -33.055     329.910
  H     -136.235     -43.639     332.883
  H     -136.029     -42.284     331.800
  H     -136.956     -43.675     331.291

 3  4  5  6  7  8  9  10  11  12  13  23  27  28  29  30  32 0
 6-311+G(2d,p)
 ****
 34  35 0
 6-311+G(2d,p)
 ****
 1  2  14  15  16  17  18  19  20  21  22  24  25  26 0
 3-21G
 ****
 31  33  36  37  38  39  40  41  42  43  44  45  46 0
 3-21G
 ****


