%nproc=1
%NoSave
%Mem=1900MB
#P OB98/GEN NMR

erre ene a

0 1
  C     -204.451     -20.081       2.197
  O     -205.030     -20.039       3.493
  P     -205.431     -21.440       4.170
  C     -207.171     -23.278       3.598
  O     -206.740     -21.939       3.387
  C     -208.495     -23.532       2.890
  O     -209.523     -22.703       3.466
  C     -208.493     -23.200       1.405
  O     -207.918     -24.241       0.630
  C     -209.985     -23.074       1.131
  O     -210.556     -24.381       0.939
  C     -210.508     -22.447       2.435
  N     -213.937     -18.789       1.728
  C     -214.100     -20.159       1.768
  N     -215.364     -20.619       1.626
  N     -213.117     -21.003       1.931
  C     -211.916     -20.400       2.099
  C     -211.627     -19.053       2.076
  C     -212.718     -18.131       1.844
  O     -212.625     -16.910       1.732
  N     -210.294     -18.826       2.299
  C     -209.783     -20.026       2.494
  N     -210.723     -21.017       2.351
  O     -206.002     -21.000       5.600
  O     -204.320     -22.424       4.295
  H     -210.027     -24.828       0.252
  H     -205.906     -21.736       6.235
  H     -214.732     -18.184       1.616
  H     -208.748     -20.221       2.736
  H     -211.442     -22.922       2.757
  H     -210.206     -22.493       0.229
  H     -216.173     -20.018       1.630
  H     -208.002     -22.240       1.215
  H     -215.507     -21.619       1.691
  H     -208.774     -24.582       3.052
  H     -207.302     -23.449       4.672
  H     -206.399     -23.960       3.226
  P     -207.270     -23.815      -0.777
  C     -208.318     -23.051      -3.027
  O     -208.503     -23.721      -1.796
  O     -206.490     -25.136      -1.235
  O     -206.375     -22.625      -0.706
  H     -205.752     -24.902      -1.829
  H     -207.315     -23.220      -3.428
  H     -208.477     -21.977      -2.886
  H     -209.048     -23.426      -3.746
  H     -204.235     -19.085       1.870
  H     -205.136     -20.540       1.515
  H     -203.545     -20.650       2.229

 3  4  5  6  7  8  9  10  11  12  23  26  30  31  33  0
 6-311+G(2d,p)
 ****
 35  36  37  38 0
 6-311+G(2d,p)
 ****
 1  2  13  14  15  16  17  18  19  20  21  22  24  25  27  28  29 0
 3-21G
 ****
 32  34  39  40  41  42  43  44  45  46  47  48  49 0
 3-21G
 ****


