%nproc=1
%NoSave
%Mem=1900MB
#P OB98/GEN NMR

erre ene a

0 1
  C     1099.458    -849.481     -70.577
  O     1100.859    -849.365     -70.656
  P     1101.523    -848.134     -71.455
  C     1103.872    -849.091     -71.058
  O     1102.957    -848.628     -72.028
  C     1104.879    -850.018     -71.712
  O     1104.242    -851.270     -72.093
  C     1105.496    -849.493     -72.991
  O     1106.506    -848.522     -72.705
  C     1106.026    -850.782     -73.633
  O     1107.307    -851.137     -73.053
  C     1104.954    -851.779     -73.238
  N     1104.445    -853.551     -78.006
  C     1105.553    -853.267     -77.272
  N     1105.601    -852.757     -76.012
  C     1104.348    -852.545     -75.535
  C     1103.168    -852.748     -76.175
  C     1103.213    -853.312     -77.501
  N     1102.121    -853.676     -78.225
  N     1102.095    -852.384     -75.369
  C     1102.648    -851.935     -74.263
  N     1104.017    -852.081     -74.291
  O     1101.539    -846.831     -70.734
  O     1100.616    -848.036     -72.792
  H     1107.911    -850.382     -73.209
  H     1100.198    -847.153     -72.818
  H     1106.499    -853.456     -77.744
  H     1102.102    -851.520     -73.422
  H     1105.406    -852.749     -72.941
  H     1106.171    -850.675     -74.712
  H     1104.721    -849.066     -73.626
  H     1105.668    -850.270     -70.997
  H     1103.312    -849.638     -70.279
  H     1102.275    -854.212     -79.059
  H     1101.230    -853.808     -77.740
  H     1104.398    -848.235     -70.592
  P     1106.697    -847.275     -73.688
  C     1108.418    -846.277     -72.035
  O     1108.131    -846.668     -73.386
  O     1105.577    -846.251     -73.675
  O     1106.881    -847.940     -75.125
  H     1106.513    -847.338     -75.803
  H     1107.933    -845.319     -71.854
  H     1109.488    -846.212     -71.931
  H     1108.033    -847.040     -71.341
  H     1099.204    -850.353     -70.012
  H     1099.051    -849.564     -71.563
  H     1099.055    -848.614     -70.096

 3  4  5  6  7  8  9  10  11  12  22  25  29  30  31  32 0
 6-311+G(2d,p)
 ****
 33  36  37 0
 6-311+G(2d,p)
 ****
 1  2  13  14  15  16  17  18  19  20  21  23  24  26 0
 3-21G
 ****
 27  28  34  35  38  39  40  41  42  43  44  45  46  47  48 0
 3-21G
 ****


