%nproc=1
%NoSave
%Mem=1900MB
#P OB98/GEN NMR

erre ene a

0 1
  C     -604.677    -381.741     200.028
  O     -603.764    -382.745     199.615
  P     -604.149    -383.600     198.313
  C     -605.269    -385.440     199.779
  O     -604.295    -385.124     198.789
  C     -605.576    -386.935     199.748
  O     -606.184    -387.291     198.492
  C     -604.356    -387.837     199.884
  O     -603.902    -387.882     201.226
  C     -604.928    -389.156     199.362
  O     -605.713    -389.794     200.380
  C     -605.836    -388.675     198.209
  N     -606.098    -390.676     193.502
  C     -606.885    -390.827     194.595
  N     -606.736    -390.276     195.816
  C     -605.651    -389.492     195.864
  C     -604.743    -389.259     194.839
  C     -604.994    -389.892     193.608
  N     -604.192    -389.735     192.507
  N     -603.731    -388.421     195.261
  C     -604.030    -388.139     196.513
  N     -605.184    -388.751     196.918
  O     -602.790    -383.607     197.463
  O     -605.300    -383.061     197.521
  H     -605.154    -389.849     201.180
  H     -602.983    -383.593     196.506
  H     -607.752    -391.468     194.465
  H     -603.444    -387.502     197.162
  H     -606.769    -389.242     198.144
  H     -604.153    -389.865     199.051
  H     -603.553    -387.494     199.227
  H     -606.303    -387.147     200.549
  H     -606.188    -384.887     199.575
  H     -604.365    -390.338     191.716
  H     -603.303    -389.269     192.626
  H     -604.884    -385.135     200.756
  P     -602.480    -387.202     201.540
  C     -601.107    -389.076     200.455
  O     -601.473    -388.450     201.666
  O     -602.669    -386.749     203.063
  O     -602.074    -386.132     200.587
  H     -603.025    -387.462     203.613
  H     -600.388    -389.870     200.681
  H     -600.653    -388.365     199.770
  H     -601.988    -389.533     199.986
  H     -604.299    -381.252     200.902
  H     -605.623    -382.189     200.251
  H     -604.798    -381.024     199.243

 3  4  5  6  7  8  9  10  11  12  22  25  29  30  31  32 0
 6-311+G(2d,p)
 ****
 33  36  37 0
 6-311+G(2d,p)
 ****
 1  2  13  14  15  16  17  18  19  20  21  23  24  26 0
 3-21G
 ****
 27  28  34  35  38  39  40  41  42  43  44  45  46  47  48 0
 3-21G
 ****


