%nproc=1
%NoSave
%Mem=1900MB
#P OB98/GEN NMR

erre ene a

0 1
  C      565.005    -894.630    -602.823
  O      565.344    -895.390    -603.964
  H      563.914    -894.600    -602.729
  H      565.373    -893.600    -602.912
  H      565.418    -895.090    -601.923
  P      566.891    -895.470    -604.388
  C      567.337    -897.470    -602.809
  O      567.616    -896.110    -603.104
  C      568.608    -898.180    -602.349
  O      569.656    -898.060    -603.329
  C      569.219    -897.640    -601.057
  O      568.497    -898.010    -599.892
  C      570.593    -898.290    -601.121
  O      570.490    -899.680    -600.759
  C      570.926    -898.120    -602.630
  N      571.741    -896.950    -602.909
  C      573.129    -897.080    -602.712
  O      573.599    -898.140    -602.332
  N      573.924    -895.990    -602.932
  C      573.398    -894.860    -603.293
  N      574.237    -893.790    -603.446
  C      571.949    -894.670    -603.526
  C      571.193    -895.750    -603.307
  O      567.505    -894.210    -604.909
  O      566.948    -896.690    -605.430
  H      571.391    -900.000    -600.619
  H      567.886    -896.780    -605.724
  H      571.563    -893.730    -603.815
  H      570.111    -895.700    -603.449
  H      571.461    -899.010    -602.998
  H      571.314    -897.830    -600.445
  H      569.341    -896.550    -601.115
  H      568.381    -899.260    -602.265
  H      575.218    -893.950    -603.246
  H      566.925    -897.940    -603.705
  H      573.877    -892.850    -603.456
  H      566.595    -897.530    -601.998
  P      568.747    -897.160    -598.554
  C      566.640    -895.640    -598.785
  O      568.059    -895.730    -598.771
  O      570.318    -896.830    -598.625
  O      568.354    -897.830    -597.273
  H      570.827    -897.500    -598.124
  H      566.349    -894.622    -598.939
  H      566.252    -895.984    -597.849
  H      566.252    -896.246    -599.577

 6  7  8  9  10  11  12  13  14  15  16  26  30  31  32  33  35 0
 6-311+G(2d,p)
 ****
 37  38 0
 6-311+G(2d,p)
 ****
 1  2  3  4  5  17  18  19  20  21  22  23  24  25 0
 3-21G
 ****
 27  28  29  34  36  39  40  41  42  43  44  45  46 0
 3-21G
 ****


