%nproc=1
%NoSave
%Mem=1900MB
#P OB98/GEN NMR

erre ene a

0 1
  C     1195.761       7.725    -520.811
  O     1194.546       8.383    -520.498
  P     1194.596       9.970    -520.266
  C     1192.481       9.606    -518.783
  O     1193.735      10.253    -518.924
  C     1192.137       9.445    -517.304
  O     1193.092       8.579    -516.647
  C     1192.173      10.744    -516.510
  O     1190.986      11.508    -516.663
  C     1192.284      10.217    -515.087
  O     1190.985       9.803    -514.608
  C     1193.197       8.996    -515.261
  N     1196.484       9.956    -511.537
  C     1195.175       9.512    -511.472
  N     1194.654       9.357    -510.233
  N     1194.441       9.238    -512.520
  C     1195.102       9.441    -513.685
  C     1196.395       9.871    -513.879
  C     1197.191      10.181    -512.712
  O     1198.330      10.629    -512.707
  N     1196.704       9.947    -515.222
  C     1195.601       9.562    -515.840
  N     1194.588       9.290    -514.958
  O     1193.661      10.555    -521.420
  O     1195.967      10.559    -520.285
  H     1190.714       9.036    -515.149
  H     1193.830      11.501    -521.542
  H     1197.000      10.165    -510.691
  H     1195.490       9.490    -516.912
  H     1192.886       8.157    -514.639
  H     1192.665      10.965    -514.372
  H     1195.145       9.614    -509.384
  H     1193.065      11.340    -516.751
  H     1193.681       9.108    -510.150
  H     1191.142       8.980    -517.226
  H     1192.526       8.625    -519.263
  H     1191.707      10.203    -519.289
  P     1190.949      12.534    -517.901
  C     1189.230      13.933    -516.536
  O     1190.444      13.925    -517.278
  O     1189.699      12.007    -518.761
  O     1192.212      12.595    -518.702
  H     1189.806      12.259    -519.697
  H     1189.169      14.878    -515.975
  H     1189.194      13.106    -515.832
  H     1188.381      13.882    -517.216
  H     1195.578       6.678    -520.938
  H     1196.461       7.871    -520.015
  H     1196.162       8.129    -521.717

 3  4  5  6  7  8  9  10  11  12  23  26  30  31 0
 6-311+G(2d,p)
 ****
 33  35  36  37  38 0
 6-311+G(2d,p)
 ****
 1  2  13  14  15  16  17  18  19  20  21  22  24  25 0
 3-21G
 ****
 27  28  29  32  34  39  40  41  42  43  44  45  46  47  48  49 0
 3-21G
 ****


