%nproc=1
%NoSave
%Mem=1900MB
#P OB98/GEN NMR

erre ene a

0 1
  C      123.364      27.552      21.734
  O      122.981      26.406      22.467
  H      124.268      27.315      21.167
  H      123.583      28.386      22.406
  H      122.576      27.834      21.031
  P      121.740      26.529      23.479
  C      120.259      25.151      21.861
  O      120.445      26.385      22.536
  C      119.106      25.263      20.866
  O      119.008      24.076      20.051
  C      117.726      25.413      21.498
  O      117.490      26.702      22.039
  C      116.849      25.118      20.292
  O      116.831      26.262      19.420
  C      117.617      23.940      19.643
  N      117.095      22.632      20.037
  C      115.707      22.463      19.959
  O      114.984      23.382      19.574
  N      115.163      21.264      20.353
  C      115.934      20.326      20.806
  N      115.340      19.175      21.230
  C      117.400      20.455      20.890
  C      117.910      21.622      20.500
  O      121.742      27.718      24.385
  O      121.725      25.133      24.261
  H      117.746      26.407      19.117
  H      120.980      25.165      24.910
  H      117.997      19.644      21.282
  H      118.978      21.799      20.546
  H      117.594      24.016      18.550
  H      115.813      24.893      20.555
  H      117.555      24.636      22.251
  H      119.332      26.098      20.190
  H      114.329      19.138      21.198
  H      120.057      24.380      22.611
  H      115.824      18.525      21.839
  H      121.164      24.881      21.310
  P      116.148      26.925      22.893
  C      117.181      26.742      25.278
  O      116.357      26.154      24.287
  O      115.079      26.022      22.118
  O      115.701      28.345      23.041
  H      114.579      26.552      21.467
  H      117.214      26.106      26.138
  H      116.781      27.695      25.555
  H      118.170      26.869      24.890

 6  7  8  9  10  11  12  13  14  15  16  26  30  31  32  33  35 0
 6-311+G(2d,p)
 ****
 37  38 0
 6-311+G(2d,p)
 ****
 1  2  3  4  5  17  18  19  20  21  22  23  24  25 0
 3-21G
 ****
 27  28  29  34  36  39  40  41  42  43  44  45  46 0
 3-21G
 ****


