%nproc=1
%NoSave
%Mem=1900MB
#P OB98/GEN NMR

erre ene a

0 1
  C     -117.605      26.741      -1.039
  O     -118.140      27.152      -2.278
  H     -117.854      25.688      -0.885
  H     -118.052      27.330      -0.233
  H     -116.518      26.852      -1.016
  P     -117.568      28.483      -2.959
  C     -119.434      30.077      -2.161
  O     -118.056      29.733      -2.078
  C     -119.689      31.522      -1.732
  O     -119.341      31.699      -0.341
  C     -118.832      32.520      -2.512
  O     -119.353      32.915      -3.768
  C     -118.774      33.701      -1.548
  O     -119.921      34.552      -1.710
  C     -118.800      33.021      -0.177
  N     -114.770      35.564       1.669
  C     -115.895      36.058       1.038
  N     -115.921      37.391       0.820
  N     -116.889      35.306       0.644
  C     -116.681      33.982       0.841
  C     -115.602      33.374       1.443
  C     -114.531      34.221       1.926
  O     -113.509      33.833       2.485
  N     -115.744      32.007       1.470
  C     -116.870      31.787       0.819
  N     -117.488      32.956       0.442
  O     -118.452      28.633      -4.290
  O     -116.105      28.459      -3.285
  H     -119.887      35.247      -1.027
  H     -117.954      29.128      -4.965
  H     -114.048      36.192       1.976
  H     -117.293      30.809       0.620
  H     -119.460      33.552       0.522
  H     -117.892      34.324      -1.724
  H     -115.131      37.992       1.000
  H     -117.817      32.131      -2.641
  H     -116.589      37.751       0.135
  H     -120.759      31.744      -1.828
  H     -119.970      29.392      -1.501
  H     -119.807      29.908      -3.175
  P     -118.361      33.280      -4.969
  C     -118.098      35.725      -4.115
  O     -117.465      34.516      -4.478
  O     -119.342      33.926      -6.056
  O     -117.596      32.128      -5.526
  H     -119.602      33.256      -6.715
  H     -117.359      36.438      -3.814
  H     -118.771      35.545      -3.303
  H     -118.643      36.108      -4.952

 6  7  8  9  10  11  12  13  14  15  26  29  33  34 0
 6-311+G(2d,p)
 ****
 36  38  39  40  41 0
 6-311+G(2d,p)
 ****
 1  2  3  4  5  16  17  18  19  20  21  22  23  24  25 0
 3-21G
 ****
 27  28  30  31  32  35  37  42  43  44  45  46  47 0
 3-21G
 ****
 48  49 0
 3-21G
 ****


