%nproc=1
%NoSave
%Mem=1900MB
#P OB98/GEN NMR

erre ene a

0 1
  C     -725.511    -799.451     -33.044
  O     -724.785    -800.205     -33.995
  H     -725.094    -799.647     -32.054
  H     -726.561    -799.753     -33.045
  H     -725.430    -798.381     -33.254
  P     -725.086    -799.974     -35.554
  C     -726.976    -800.582     -37.193
  O     -726.554    -800.549     -35.839
  C     -727.719    -801.887     -37.476
  O     -728.906    -801.955     -36.658
  C     -728.214    -802.014     -38.913
  O     -727.159    -802.334     -39.798
  C     -729.270    -803.095     -38.753
  O     -728.677    -804.397     -38.740
  C     -729.878    -802.755     -37.374
  N     -731.155    -802.053     -37.491
  C     -732.270    -802.727     -37.001
  O     -732.223    -803.841     -36.490
  N     -733.466    -802.090     -37.189
  C     -733.671    -800.956     -37.911
  O     -734.777    -800.559     -38.255
  C     -732.450    -800.260     -38.342
  C     -731.265    -800.831     -38.135
  O     -724.026    -800.450     -36.491
  O     -725.293    -798.386     -35.662
  H     -724.482    -797.982     -36.028
  H     -728.198    -804.480     -39.591
  H     -734.296    -802.599     -36.874
  H     -732.560    -799.308     -38.859
  H     -730.352    -800.359     -38.476
  H     -730.023    -803.672     -36.787
  H     -729.997    -803.068     -39.567
  H     -728.699    -801.085     -39.222
  H     -727.068    -802.719     -37.208
  H     -726.088    -800.525     -37.837
  H     -727.617    -799.715     -37.391
  P     -727.333    -802.111     -41.369
  C     -728.816    -803.003     -43.272
  O     -728.406    -803.169     -41.915
  O     -726.057    -802.058     -42.152
  O     -728.121    -800.725     -41.481
  H     -727.651    -800.142     -42.119
  H     -729.529    -803.760     -43.524
  H     -727.964    -803.086     -43.915
  H     -729.262    -802.038     -43.394

 6  7  8  9  10  11  12  13  14  15  16  27  31  32  33  34  35 0
 6-311+G(2d,p)
 ****
 36  37 0
 6-311+G(2d,p)
 ****
 1  2  3  4  5  17  18  19  20  21  22  23  24  25 0
 3-21G
 ****
 26  28  29  30  38  39  40  41  42  43  44  45 0
 3-21G
 ****


