%nproc=1
%NoSave
%Mem=1900MB
#P OB98/GEN NMR

erre ene a

0 1
  C       78.691    -109.334     211.674
  O       79.941    -109.037     211.082
  H       77.928    -109.348     210.890
  H       78.430    -108.560     212.401
  H       78.709    -110.312     212.161
  P       81.272    -109.216     211.956
  C       81.329    -111.770     212.323
  O       81.862    -110.667     211.603
  C       81.544    -113.075     211.553
  O       80.978    -112.922     210.215
  C       83.027    -113.465     211.380
  O       83.093    -114.899     211.367
  C       83.321    -112.892     210.006
  O       84.523    -113.389     209.477
  C       82.025    -113.266     209.283
  N       81.849    -112.581     208.009
  C       82.650    -112.992     206.946
  O       83.470    -113.905     207.019
  N       82.483    -112.300     205.775
  C       81.621    -111.262     205.573
  O       81.498    -110.691     204.495
  C       80.825    -110.854     206.741
  C       80.971    -111.522     207.887
  O       81.135    -108.929     213.414
  O       82.318    -108.227     211.256
  H       82.351    -107.385     211.748
  H       84.629    -114.339     209.700
  H       83.055    -112.585     204.995
  H       80.147    -110.020     206.618
  H       80.402    -111.250     208.770
  H       81.969    -114.348     209.121
  H       83.432    -111.806     210.066
  H       83.666    -113.076     212.177
  H       80.981    -113.877     212.045
  H       80.258    -111.598     212.470
  H       81.818    -111.830     213.303
  P       82.694    -115.810     212.626
  C       80.222    -116.190     211.998
  O       81.490    -116.790     212.212
  O       82.419    -115.027     213.869
  O       83.934    -116.799     212.847
  H       84.053    -116.956     213.805
  H       79.511    -116.944     211.730
  H       80.296    -115.472     211.208
  H       79.903    -115.702     212.895

 6  7  8  9  10  11  12  13  14  15  16  27  31  32  33  34  35 0
 6-311+G(2d,p)
 ****
 36  37 0
 6-311+G(2d,p)
 ****
 1  2  3  4  5  17  18  19  20  21  22  23  24  25 0
 3-21G
 ****
 26  28  29  30  38  39  40  41  42  43  44  45 0
 3-21G
 ****


