%nproc=1
%NoSave
%Mem=1900MB
#P OB98/GEN NMR

erre ene a

0 1
  C       26.876     255.995     -97.362
  O       25.967     256.736     -98.148
  H       26.506     255.959     -96.335
  H       27.850     256.490     -97.365
  H       26.974     254.973     -97.738
  P       26.145     256.659     -99.739
  C       27.186     259.019     -99.990
  O       27.377     257.619    -100.122
  C       28.186     259.776    -100.865
  O       27.925     259.452    -102.256
  C       28.107     261.300    -100.719
  O       29.430     261.839    -100.774
  C       27.326     261.733    -101.946
  O       27.605     263.080    -102.327
  C       27.771     260.694    -102.969
  N       25.457     263.159    -106.705
  C       26.465     263.569    -105.854
  N       26.923     264.829    -106.019
  N       26.981     262.810    -104.923
  C       26.451     261.562    -104.898
  C       25.449     261.040    -105.679
  C       24.867     261.899    -106.687
  O       23.956     261.602    -107.453
  N       25.167     259.744    -105.324
  C       25.998     259.488    -104.330
  N       26.801     260.557    -104.041
  O       24.867     257.453    -100.287
  O       26.217     255.283    -100.310
  H       27.062     263.280    -103.119
  H       24.290     256.844    -100.785
  H       25.087     263.789    -107.395
  H       26.053     258.555    -103.785
  H       28.732     260.947    -103.431
  H       26.251     261.652    -101.747
  H       26.606     265.451    -106.746
  H       27.624     261.618     -99.792
  H       27.688     265.139    -105.432
  H       29.195     259.411    -100.639
  H       27.333     259.301     -98.943
  H       26.164     259.275    -100.288
  P       30.120     262.220     -99.376
  C       29.544     264.745     -99.410
  O       29.356     263.494     -98.765
  O       31.541     262.808     -99.818
  O       30.275     261.064     -98.445
  H       32.248     262.175     -99.595
  H       28.980     265.498     -98.900
  H       29.211     264.677    -100.425
  H       30.582     265.003     -99.392

 6  7  8  9  10  11  12  13  14  15  26  29  33  34 0
 6-311+G(2d,p)
 ****
 36  38  39  40  41 0
 6-311+G(2d,p)
 ****
 1  2  3  4  5  16  17  18  19  20  21  22  23  24  25 0
 3-21G
 ****
 27  28  30  31  32  35  37  42  43  44  45  46  47 0
 3-21G
 ****
 48  49 0
 3-21G
 ****


