%nproc=1
%NoSave
%Mem=1900MB
#P OB98/GEN NMR

erre ene a

0 1
  C      154.661    -113.382     330.485
  O      154.033    -114.412     331.256
  P      154.898    -115.062     332.441
  C      154.572    -113.264     334.282
  O      154.283    -114.584     333.847
  C      154.044    -113.003     335.699
  O      152.592    -112.930     335.708
  C      154.452    -114.075     336.708
  O      154.632    -113.430     337.973
  C      153.219    -114.958     336.786
  O      153.201    -115.718     337.993
  C      152.105    -113.900     336.657
  N      150.821    -114.470     336.247
  C      150.087    -115.147     337.219
  O      150.560    -115.313     338.350
  N      148.859    -115.663     336.883
  C      148.428    -115.554     335.669
  N      147.204    -116.086     335.395
  C      149.194    -114.896     334.592
  C      150.367    -114.378     334.951
  O      156.294    -114.277     332.352
  O      155.093    -116.537     332.301
  H      152.356    -116.219     338.020
  H      157.032    -114.914     332.350
  H      148.801    -114.845     333.587
  H      151.001    -113.870     334.235
  H      151.951    -113.386     337.613
  H      153.193    -115.651     335.939
  H      155.363    -114.616     336.435
  H      154.420    -112.026     336.027
  H      146.703    -116.523     336.158
  H      154.126    -112.541     333.593
  H      146.773    -116.062     334.486
  H      155.655    -113.104     334.229
  P      155.710    -114.038     338.990
  C      157.335    -112.148     338.361
  O      156.626    -112.787     339.410
  O      156.686    -114.826     337.988
  O      155.229    -114.922     340.093
  H      157.359    -115.308     338.500
  H      157.814    -111.250     338.759
  H      156.652    -111.862     337.556
  H      158.111    -112.815     337.975
  H      153.983    -113.036     329.733
  H      155.541    -113.772     330.019
  H      154.928    -112.569     331.127

 3  4  5  6  7  8  9  10  11  12  13  21  23  27  28  29  30  32 0
 6-311+G(2d,p)
 ****
 34  35 0
 6-311+G(2d,p)
 ****
 1  2  14  15  16  17  18  19  20  22  24  25  26 0
 3-21G
 ****
 31  33  36  37  38  39  40  41  42  43  44  45  46 0
 3-21G
 ****


