%nproc=1
%NoSave
%Mem=1900MB
#P OB98/GEN NMR

erre ene a

0 1
  C       35.258      14.210     263.440
  O       34.047      14.864     263.818
  P       33.366      15.902     262.805
  C       34.328      17.842     264.207
  O       34.134      17.308     262.907
  C       34.304      19.385     264.176
  O       35.517      19.884     263.557
  C       33.104      19.947     263.394
  O       32.371      20.932     264.125
  C       33.724      20.412     262.086
  O       32.957      21.416     261.437
  C       35.151      20.796     262.505
  N       36.084      20.750     261.375
  C       35.837      21.629     260.328
  O       34.848      22.361     260.281
  N       36.736      21.592     259.290
  C       37.782      20.730     259.173
  O       38.532      20.705     258.201
  C       37.958      19.779     260.283
  C       37.113      19.835     261.317
  O       31.877      15.994     262.874
  O       33.837      15.359     261.369
  H       33.394      21.639     260.587
  H       33.084      15.466     260.749
  H       36.576      22.232     258.530
  H       38.766      19.064     260.212
  H       37.211      19.141     262.143
  H       35.178      21.818     262.907
  H       33.779      19.557     261.402
  H       32.361      19.169     263.183
  H       34.275      19.727     265.216
  H       35.292      17.517     264.595
  H       33.568      17.444     264.885
  P       30.936      20.690     264.784
  C       29.107      21.839     263.344
  O       29.840      20.658     263.612
  O       30.592      21.568     265.940
  O       31.009      19.159     265.259
  H       30.578      19.073     266.130
  H       28.187      21.560     262.817
  H       29.697      22.499     262.709
  H       28.837      22.359     264.269
  H       35.571      13.557     264.227
  H       36.018      14.942     263.260
  H       35.093      13.641     262.549

 3  4  5  6  7  8  9  10  11  12  13  23  28  29  30  31  32 0
 6-311+G(2d,p)
 ****
 33  34 0
 6-311+G(2d,p)
 ****
 1  2  14  15  16  17  18  19  20  21  22  24  25  26  27 0
 3-21G
 ****
 35  36  37  38  39  40  41  42  43  44  45 0
 3-21G
 ****


