%nproc=1
%NoSave
%Mem=1900MB
#P OB98/GEN NMR

erre ene a

0 1
  C     -112.595      22.583     149.819
  O     -111.619      22.570     150.847
  P     -110.102      22.254     150.416
  C     -108.966      20.215     149.257
  O     -110.030      20.689     150.078
  C     -108.838      18.700     149.390
  O     -108.545      18.342     150.756
  C     -110.098      17.922     149.029
  O     -110.277      17.861     147.623
  C     -109.798      16.582     149.692
  O     -108.896      15.818     148.875
  C     -109.095      17.017     150.991
  N     -111.480      14.262     154.593
  C     -110.669      13.903     153.570
  N     -110.092      14.692     152.640
  C     -110.415      15.981     152.844
  C     -111.245      16.492     153.827
  C     -111.789      15.573     154.737
  N     -112.619      15.942     155.776
  N     -111.361      17.863     153.707
  C     -110.606      18.173     152.673
  N     -110.000      17.073     152.128
  O     -109.301      22.374     151.792
  O     -109.547      23.163     149.360
  H     -109.287      15.766     147.980
  H     -108.403      22.729     151.646
  H     -110.456      12.840     153.490
  H     -110.460      19.175     152.288
  H     -108.264      16.357     151.262
  H     -110.693      15.973     149.855
  H     -110.978      18.384     149.496
  H     -107.997      18.375     148.760
  H     -108.025      20.678     149.575
  H     -113.083      15.207     156.288
  H     -112.961      16.895     155.796
  H     -109.161      20.504     148.220
  P     -111.780      17.976     147.068
  C     -113.855      16.481     147.325
  O     -112.453      16.578     147.492
  O     -111.558      17.793     145.495
  O     -112.513      19.204     147.488
  H     -110.992      17.030     145.292
  H     -114.171      15.471     147.597
  H     -114.127      16.670     146.284
  H     -114.360      17.199     147.979
  H     -113.553      22.804     150.240
  H     -112.626      21.624     149.345
  H     -112.342      23.330     149.096

 3  4  5  6  7  8  9  10  11  12  22  25  29  30  31  32 0
 6-311+G(2d,p)
 ****
 33  36  37 0
 6-311+G(2d,p)
 ****
 1  2  13  14  15  16  17  18  19  20  21  23  24  26 0
 3-21G
 ****
 27  28  34  35  38  39  40  41  42  43  44  45  46  47  48 0
 3-21G
 ****


