%nproc=1
%NoSave
%Mem=1900MB
#P OB98/GEN NMR

erre ene a

0 1
  C      -50.490     105.027      27.110
  O      -49.880     104.910      28.381
  H      -50.982     104.082      26.869
  H      -49.731     105.233      26.351
  H      -51.237     105.826      27.118
  P      -49.246     106.240      29.006
  C      -50.226     106.180      31.441
  O      -50.255     106.760      30.143
  C      -51.646     106.062      31.990
  O      -52.489     105.302      31.101
  C      -51.737     105.309      33.306
  O      -51.214     106.041      34.392
  C      -53.238     105.073      33.385
  O      -53.924     106.251      33.831
  C      -53.576     104.770      31.904
  N      -53.785     103.351      31.659
  C      -54.821     102.752      32.388
  O      -55.497     103.422      33.169
  N      -55.041     101.407      32.233
  C      -54.314     100.724      31.407
  N      -54.577      99.394      31.306
  C      -53.231     101.319      30.600
  C      -53.020     102.622      30.779
  O      -49.451     107.309      27.835
  O      -47.837     106.110      29.485
  H      -53.456     106.555      34.633
  H      -50.368     107.372      27.522
  H      -52.655     100.713      29.917
  H      -52.245     103.137      30.228
  H      -54.485     105.305      31.600
  H      -53.491     104.274      34.084
  H      -51.248     104.331      33.218
  H      -52.062     107.074      32.075
  H      -55.313      99.016      31.889
  H      -49.598     106.766      32.117
  H      -54.056      98.757      30.722
  H      -49.774     105.187      31.347
  P      -49.766     105.694      34.986
  C      -49.198     108.000      33.993
  O      -48.732     106.680      34.253
  O      -49.388     104.253      34.939
  O      -49.821     106.304      36.467
  H      -49.984     107.263      36.506
  H      -48.428     108.560      33.505
  H      -49.455     108.476      34.916
  H      -50.061     107.956      33.362

 6  7  8  9  10  11  12  13  14  15  16  26  30  31  32  33  35 0
 6-311+G(2d,p)
 ****
 37  38 0
 6-311+G(2d,p)
 ****
 1  2  3  4  5  17  18  19  20  21  22  23  24  25 0
 3-21G
 ****
 27  28  29  34  36  39  40  41  42  43  44  45  46 0
 3-21G
 ****


