%nproc=1
%NoSave
%Mem=1900MB
#P OB98/GEN NMR

erre ene a

0 1
  C     -335.890    -485.332     271.518
  O     -335.456    -486.039     270.374
  H     -336.200    -486.052     272.281
  H     -336.743    -484.697     271.269
  H     -335.076    -484.721     271.920
  P     -334.916    -485.160     269.144
  C     -333.445    -487.240     268.608
  O     -334.274    -486.197     268.101
  C     -333.605    -488.491     267.748
  O     -334.963    -488.971     267.848
  C     -333.356    -488.267     266.264
  O     -331.975    -488.231     265.949
  C     -334.085    -489.460     265.657
  O     -333.268    -490.635     265.671
  C     -335.277    -489.639     266.604
  N     -339.444    -490.792     263.906
  C     -338.427    -491.555     264.364
  N     -337.360    -491.168     265.097
  C     -337.415    -489.852     265.354
  C     -338.385    -488.950     264.947
  C     -339.445    -489.471     264.189
  N     -340.464    -488.688     263.686
  N     -338.065    -487.674     265.368
  C     -336.929    -487.801     266.027
  N     -336.503    -489.100     266.046
  O     -333.645    -484.414     269.770
  O     -335.901    -484.200     268.565
  H     -332.487    -490.439     265.114
  H     -333.908    -483.530     270.088
  H     -338.474    -492.607     264.103
  H     -336.383    -486.994     266.495
  H     -335.464    -490.695     266.842
  H     -334.362    -489.267     264.618
  H     -333.854    -487.345     265.931
  H     -332.938    -489.270     268.139
  H     -333.741    -487.467     269.637
  H     -332.402    -486.899     268.603
  H     -341.180    -489.127     263.134
  H     -340.415    -487.678     263.807
  P     -331.472    -487.234     264.803
  C     -329.029    -486.995     265.663
  O     -329.893    -487.446     264.629
  O     -331.586    -485.792     265.491
  O     -332.250    -487.306     263.532
  H     -332.397    -485.335     265.200
  H     -328.014    -487.208     265.398
  H     -329.272    -487.498     266.576
  H     -329.150    -485.940     265.794

 6  7  8  9  10  11  12  13  14  15  25  28  32  33  34  35 0
 6-311+G(2d,p)
 ****
 36  37  40 0
 6-311+G(2d,p)
 ****
 1  2  3  4  5  16  17  18  19  20  21  22  23  24 0
 3-21G
 ****
 26  27  29  30  31  38  39 41  42  43  44  45  46  47  48 0
 3-21G
 ****


