%nproc=1
%NoSave
%Mem=1900MB
#P OB98/GEN NMR

erre ene a

0 1
  C      179.922     -44.577     140.387
  O      180.056     -43.291     141.010
  P      179.157     -42.972     142.299
  C      181.224     -41.796     143.349
  O      179.828     -41.760     143.109
  C      181.767     -40.375     143.575
  O      181.881     -39.647     142.334
  C      180.877     -39.524     144.465
  O      181.106     -39.784     145.849
  C      181.368     -38.120     144.106
  O      182.590     -37.837     144.816
  C      181.648     -38.253     142.602
  N      179.807     -34.384     139.773
  C      180.937     -34.505     140.500
  N      181.340     -35.555     141.244
  C      180.459     -36.567     141.165
  C      179.266     -36.592     140.460
  C      178.946     -35.429     139.729
  N      177.795     -35.310     138.981
  N      178.623     -37.802     140.622
  C      179.419     -38.497     141.414
  N      180.531     -37.795     141.772
  O      179.425     -44.239     143.246
  O      177.698     -42.816     141.995
  H      182.706     -36.860     144.789
  H      178.612     -44.456     143.749
  H      181.599     -33.646     140.504
  H      179.225     -39.515     141.737
  H      182.533     -37.689     142.297
  H      180.655     -37.343     144.387
  H      179.818     -39.629     144.184
  H      182.773     -40.463     144.025
  H      181.750     -42.260     142.507
  H      177.646     -34.458     138.460
  H      177.164     -36.100     138.936
  H      181.424     -42.433     144.222
  P      180.060     -40.729     146.597
  C      181.589     -42.139     148.151
  O      180.689     -41.044     148.030
  O      180.174     -42.110     145.801
  O      178.657     -40.204     146.594
  H      179.318     -42.582     145.820
  H      182.149     -42.032     149.083
  H      182.281     -42.187     147.309
  H      180.999     -43.074     148.195
  H      180.582     -44.637     139.547
  H      178.913     -44.710     140.058
  H      180.171     -45.342     141.092

 3  4  5  6  7  8  9  10  11  12  22  25  29  30  31  32 0
 6-311+G(2d,p)
 ****
 33  36  37 0
 6-311+G(2d,p)
 ****
 1  2  13  14  15  16  17  18  19  20  21  23  24  26 0
 3-21G
 ****
 27  28  34  35  38  39  40  41  42  43  44  45  46  47  48 0
 3-21G
 ****


