%nproc=1
%NoSave
%Mem=1900MB
#P OB98/GEN NMR

erre ene a

0 1
  C      595.494    -581.469     369.032
  O      594.664    -581.877     367.958
  H      596.487    -581.220     368.633
  H      595.602    -582.283     369.751
  H      595.081    -580.581     369.521
  P      593.134    -582.205     368.313
  C      593.815    -584.681     368.675
  O      592.929    -583.774     368.034
  C      593.072    -585.516     369.720
  O      592.753    -584.664     370.861
  C      591.752    -586.128     369.220
  O      591.597    -587.406     369.853
  C      590.701    -585.185     369.788
  O      589.417    -585.794     369.879
  C      591.344    -584.845     371.137
  N      588.915    -583.156     375.206
  C      589.422    -584.406     374.918
  N      589.254    -585.363     375.861
  N      590.044    -584.710     373.806
  C      590.162    -583.639     372.967
  C      589.705    -582.358     373.133
  C      589.009    -582.052     374.363
  O      588.514    -580.967     374.655
  N      590.009    -581.579     372.032
  C      590.649    -582.403     371.213
  N      590.763    -583.659     371.737
  O      592.342    -581.498     367.114
  O      592.669    -581.724     369.648
  H      588.757    -585.072     369.984
  H      592.071    -580.596     367.368
  H      588.435    -582.978     376.074
  H      591.037    -582.126     370.244
  H      591.242    -585.658     371.865
  H      590.618    -584.288     369.158
  H      588.833    -585.197     376.767
  H      591.692    -586.236     368.136
  H      589.659    -586.279     375.689
  H      593.758    -586.296     370.095
  H      594.613    -584.106     369.170
  H      594.265    -585.336     367.924
  P      591.679    -588.714     368.930
  C      589.336    -589.536     369.716
  O      590.716    -589.837     369.556
  O      593.152    -589.286     369.247
  O      591.501    -588.452     367.464
  H      593.491    -589.777     368.483
  H      588.834    -590.380     370.142
  H      588.907    -589.310     368.762
  H      589.228    -588.692     370.365

 6  7  8  9  10  11  12  13  14  15  26  29  33  34 0
 6-311+G(2d,p)
 ****
 36  38  39  40  41 0
 6-311+G(2d,p)
 ****
 1  2  3  4  5  16  17  18  19  20  21  22  23  24  25 0
 3-21G
 ****
 27  28  30  31  32  35  37  42  43  44  45  46  47 0
 3-21G
 ****
 48  49 0
 3-21G
 ****


