%nproc=1
%NoSave
%Mem=1900MB
#P OB98/GEN NMR

erre ene a

0 1
  C     -240.233    -657.619    -254.567
  O     -240.527    -657.240    -255.896
  H     -239.148    -657.618    -254.433
  H     -240.608    -658.630    -254.373
  H     -240.681    -656.915    -253.860
  P     -242.070    -657.013    -256.261
  C     -241.501    -655.364    -258.225
  O     -242.135    -656.565    -257.802
  C     -241.165    -655.446    -259.712
  O     -240.205    -656.497    -259.974
  C     -242.345    -655.816    -260.598
  O     -243.284    -654.765    -260.709
  C     -241.626    -656.145    -261.899
  O     -241.265    -654.955    -262.608
  C     -240.365    -656.875    -261.369
  N     -240.452    -658.321    -261.528
  C     -240.395    -658.795    -262.848
  O     -240.271    -658.009    -263.780
  N     -240.515    -660.143    -263.062
  C     -240.641    -660.953    -262.064
  N     -240.762    -662.278    -262.345
  C     -240.678    -660.500    -260.653
  C     -240.583    -659.186    -260.465
  O     -242.419    -655.656    -255.485
  O     -242.975    -658.161    -255.941
  H     -240.707    -655.242    -263.359
  H     -241.812    -654.926    -255.692
  H     -240.783    -661.214    -259.849
  H     -240.602    -658.770    -259.464
  H     -239.471    -656.527    -261.898
  H     -242.250    -656.743    -262.569
  H     -242.825    -656.730    -260.228
  H     -240.718    -654.491    -260.017
  H     -240.750    -662.553    -263.325
  H     -240.603    -655.167    -257.635
  H     -240.905    -662.996    -261.647
  H     -242.204    -654.540    -258.044
  P     -244.843    -655.085    -260.931
  C     -245.306    -653.454    -258.993
  O     -245.647    -653.838    -260.316
  O     -245.291    -656.415    -260.428
  O     -245.039    -654.881    -262.508
  H     -244.828    -653.987    -262.830
  H     -245.906    -652.618    -258.698
  H     -244.272    -653.182    -258.956
  H     -245.483    -654.273    -258.327

 6  7  8  9  10  11  12  13  14  15  16  26  30  31  32  33  35 0
 6-311+G(2d,p)
 ****
 37  38 0
 6-311+G(2d,p)
 ****
 1  2  3  4  5  17  18  19  20  21  22  23  24  25 0
 3-21G
 ****
 27  28  29  34  36  39  40  41  42  43  44  45  46 0
 3-21G
 ****


