%nproc=1
%NoSave
%Mem=1900MB
#P OB98/GEN NMR

erre ene a

0 1
  C       15.850     -65.755     209.656
  O       14.436     -65.808     209.697
  H       16.247     -66.725     209.967
  H       16.212     -64.988     210.346
  H       16.197     -65.539     208.642
  P       13.659     -64.563     209.055
  C       13.572     -63.154     211.265
  O       12.856     -63.836     210.244
  C       12.606     -62.642     212.329
  O       13.318     -61.960     213.380
  C       11.619     -61.602     211.829
  O       10.614     -62.156     211.008
  C       11.092     -61.056     213.148
  O       10.031     -61.864     213.670
  C       12.341     -61.134     214.059
  N       12.857     -59.817     214.382
  C       12.334     -59.238     215.546
  O       11.511     -59.851     216.226
  N       12.729     -57.969     215.882
  C       13.549     -57.324     215.111
  N       13.875     -56.058     215.486
  C       14.121     -57.898     213.877
  C       13.736     -59.137     213.573
  O       12.501     -65.276     208.214
  O       14.513     -63.638     208.255
  H        9.360     -61.928     212.960
  H       12.011     -65.949     208.715
  H       14.813     -57.323     213.277
  H       14.107     -59.634     212.684
  H       12.099     -61.647     214.999
  H       10.694     -60.044     213.035
  H       12.153     -60.793     211.313
  H       12.088     -63.508     212.765
  H       13.417     -55.684     216.309
  H       14.146     -62.324     210.842
  H       14.439     -55.435     214.927
  H       14.283     -63.861     211.702
  P       10.198     -61.470     209.623
  C        7.955     -60.718     210.641
  O        8.591     -61.434     209.589
  O       10.825     -62.059     208.404
  O       10.559     -59.928     209.860
  H       10.094     -59.508     210.604
  H        6.894     -60.764     210.513
  H        8.273     -59.697     210.620
  H        8.220     -61.155     211.581

 6  7  8  9  10  11  12  13  14  15  16  26  30  31  32  33  35 0
 6-311+G(2d,p)
 ****
 37  38 0
 6-311+G(2d,p)
 ****
 1  2  3  4  5  17  18  19  20  21  22  23  24  25 0
 3-21G
 ****
 27  28  29  34  36  39  40  41  42  43  44  45  46 0
 3-21G
 ****


