%nproc=1
%NoSave
%Mem=1900MB
#P OB98/GEN NMR

erre ene a

0 1
  C       75.172     256.055    -290.167
  O       76.030     255.240    -289.390
  H       74.182     256.070    -289.697
  H       75.066     255.657    -291.179
  H       75.556     257.076    -290.210
  P       77.497     254.932    -289.956
  C       78.154     253.934    -287.660
  O       78.057     253.724    -289.065
  C       78.627     252.658    -286.972
  O       77.607     251.642    -287.048
  C       79.868     252.054    -287.617
  O       81.026     252.782    -287.261
  C       79.801     250.634    -287.086
  O       80.298     250.551    -285.745
  C       78.279     250.359    -287.133
  N       77.870     249.632    -288.328
  C       78.514     248.409    -288.554
  O       79.367     248.001    -287.766
  N       78.187     247.698    -289.683
  C       77.289     248.153    -290.500
  N       77.012     247.399    -291.597
  C       76.577     249.428    -290.292
  C       76.914     250.111    -289.197
  O       78.435     256.097    -290.075
  O       77.217     254.239    -291.372
  H       81.228     250.846    -285.786
  H       77.170     254.911    -292.077
  H       75.828     249.764    -290.995
  H       76.438     251.059    -288.967
  H       77.968     249.782    -286.252
  H       80.386     249.952    -287.701
  H       79.749     252.020    -288.702
  H       78.802     252.882    -285.909
  H       77.532     246.534    -291.704
  H       77.156     254.209    -287.307
  H       76.274     247.605    -292.251
  H       78.839     254.759    -287.439
  P       82.198     253.018    -288.334
  C       82.757     255.329    -287.325
  O       83.235     254.014    -287.612
  O       81.747     253.435    -289.691
  O       82.984     251.622    -288.322
  H       82.474     250.918    -288.797
  H       83.531     255.894    -286.849
  H       81.909     255.266    -286.675
  H       82.473     255.812    -288.236

 6  7  8  9  10  11  12  13  14  15  16  26  30  31  32  33  35 0
 6-311+G(2d,p)
 ****
 37  38 0
 6-311+G(2d,p)
 ****
 1  2  3  4  5  17  18  19  20  21  22  23  24  25 0
 3-21G
 ****
 27  28  29  34  36  39  40  41  42  43  44  45  46 0
 3-21G
 ****


