%nproc=1
%NoSave
%Mem=1900MB
#P OB98/GEN NMR

erre ene a

0 1
  C      -58.417    -894.860      -9.752
  O      -57.376    -894.990     -10.736
  P      -57.212    -893.790     -11.791
  C      -58.086    -895.060     -13.921
  O      -58.316    -894.070     -12.928
  C      -59.226    -895.070     -14.932
  O      -59.461    -893.740     -15.464
  C      -58.995    -895.950     -16.144
  O      -59.127    -897.330     -15.825
  C      -60.028    -895.420     -17.106
  O      -61.321    -895.970     -16.810
  C      -60.018    -893.900     -16.783
  N      -59.308    -893.110     -17.775
  C      -60.061    -892.670     -18.856
  O      -61.264    -892.940     -18.993
  N      -59.402    -891.920     -19.785
  C      -58.071    -891.600     -19.767
  O      -57.535    -890.910     -20.606
  C      -57.318    -892.140     -18.617
  C      -57.954    -892.850     -17.694
  O      -55.819    -894.180     -12.478
  O      -57.265    -892.440     -11.154
  H      -55.694    -895.140     -12.575
  H      -61.896    -895.740     -17.561
  H      -59.933    -891.580     -20.580
  H      -56.252    -891.930     -18.582
  H      -57.411    -893.270     -16.853
  H      -61.059    -893.530     -16.717
  H      -59.799    -895.660     -18.148
  H      -57.990    -895.770     -16.545
  H      -60.139    -895.390     -14.399
  H      -58.007    -896.040     -13.446
  H      -57.122    -894.860     -14.414
  P      -57.770    -898.130     -15.472
  C      -57.180    -899.020     -17.851
  O      -56.883    -898.120     -16.799
  O      -58.324    -899.640     -15.357
  O      -57.086    -897.640     -14.237
  H      -58.939    -899.860     -16.087
  H      -56.718    -898.630     -18.770
  H      -58.253    -899.110     -18.010
  H      -56.763    -900.000     -17.618
  H      -58.417    -895.721      -9.117
  H      -59.364    -894.779     -10.243
  H      -58.244    -893.983      -9.164

 3  4  5  6  7  8  9  10  11  12  13  24  28  29  30  31  32 0
 6-311+G(2d,p)
 ****
 33  34 0
 6-311+G(2d,p)
 ****
 1  2  14  15  16  17  18  19  20  21  22  23  25  26  27 0
 3-21G
 ****
 35  36  37  38  39  40  41  42  43  44  45 0
 3-21G
 ****


