%nproc=1
%NoSave
%Mem=1900MB
#P OB98/GEN NMR

erre ene a

0 1
  C      349.282     684.147    -268.860
  O      349.288     684.165    -267.442
  P      350.655     683.733    -266.699
  C      349.034     682.295    -265.280
  O      350.223     683.068    -265.305
  C      348.458     682.201    -263.856
  O      349.449     681.567    -262.999
  C      348.099     683.554    -263.244
  O      346.918     683.376    -262.453
  C      349.266     683.847    -262.314
  O      348.890     684.739    -261.265
  C      349.656     682.437    -261.868
  N      351.022     682.357    -261.382
  C      351.267     682.818    -260.078
  O      350.363     683.334    -259.426
  N      352.548     682.730    -259.572
  C      353.511     682.337    -260.341
  N      354.760     682.260    -259.790
  C      353.317     681.953    -261.759
  C      352.063     681.975    -262.198
  O      351.272     685.145    -266.264
  O      351.589     682.939    -267.548
  H      348.161     684.328    -260.745
  H      352.252     685.117    -266.271
  H      354.168     681.660    -262.361
  H      351.821     681.692    -263.227
  H      348.978     682.085    -261.057
  H      350.083     684.303    -262.881
  H      347.917     684.338    -263.989
  H      347.586     681.543    -263.884
  H      354.865     682.543    -258.827
  H      349.251     681.278    -265.615
  H      355.569     681.958    -260.315
  H      348.288     682.728    -265.960
  P      345.621     684.236    -262.841
  C      345.871     685.241    -260.485
  O      344.984     684.689    -261.437
  O      344.597     683.093    -263.302
  O      345.757     685.288    -263.890
  H      343.771     683.501    -263.632
  H      345.295     685.631    -259.644
  H      346.450     686.066    -260.928
  H      346.560     684.467    -260.113
  H      348.321     684.453    -269.217
  H      349.491     683.156    -269.205
  H      350.029     684.818    -269.228

 3  4  5  6  7  8  9  10  11  12  13  21  23  27  28  29  30  32 0
 6-311+G(2d,p)
 ****
 34  35 0
 6-311+G(2d,p)
 ****
 1  2  14  15  16  17  18  19  20  22  24  25  26 0
 3-21G
 ****
 31  33  36  37  38  39  40  41  42  43  44  45  46 0
 3-21G
 ****


