%nproc=1
%NoSave
%Mem=1900MB
#P OB98/GEN NMR

erre ene a

0 1
  C     -899.231     326.274    1055.362
  O     -898.031     325.712    1055.910
  P     -896.671     326.543    1056.082
  C     -895.541     325.024    1054.302
  O     -895.451     325.604    1055.593
  C     -894.181     324.459    1053.862
  O     -893.171     325.483    1053.854
  C     -893.611     323.377    1054.780
  O     -894.291     322.138    1054.647
  C     -892.141     323.346    1054.311
  O     -891.991     322.493    1053.153
  C     -891.911     324.820    1053.918
  N     -891.001     325.495    1054.845
  C     -889.711     324.988    1054.933
  O     -889.401     323.988    1054.329
  N     -888.801     325.659    1055.735
  C     -889.181     326.662    1056.457
  N     -888.231     327.302    1057.215
  C     -890.581     327.135    1056.499
  C     -891.421     326.514    1055.662
  O     -896.471     327.140    1057.446
  O     -896.741     327.695    1054.956
  H     -896.191     328.462    1055.243
  H     -892.661     322.769    1052.507
  H     -890.871     327.965    1057.154
  H     -892.471     326.815    1055.631
  H     -891.481     324.875    1052.918
  H     -891.471     322.952    1055.096
  H     -893.651     323.718    1055.824
  H     -894.291     324.065    1052.820
  H     -887.281     326.934    1057.159
  H     -895.851     325.811    1053.592
  H     -888.431     328.087    1057.783
  H     -896.311     324.253    1054.306
  P     -895.471     321.847    1055.706
  C     -893.861     320.648    1057.362
  O     -895.041     320.562    1056.576
  O     -896.681     321.307    1054.793
  O     -895.891     323.050    1056.505
  H     -897.541     321.650    1055.132
  H     -893.981     319.959    1058.220
  H     -893.701     321.658    1057.754
  H     -893.021     320.335    1056.763
  H     -900.000     325.530    1055.349
  H     -899.044     326.611    1054.364
  H     -899.545     327.101    1055.964

 3  4  5  6  7  8  9  10  11  12  13  24  27  28  29  30  32 0
 6-311+G(2d,p)
 ****
 34  35 0
 6-311+G(2d,p)
 ****
 1  2  14  15  16  17  18  19  20  21  22  23  25  26 0
 3-21G
 ****
 31  33  36  37  38  39  40  41  42  43  44  45  46 0
 3-21G
 ****


