%nproc=1
%NoSave
%Mem=1900MB
#P OB98/GEN NMR

erre ene a

0 1
  C     1060.107    -616.820    -156.569
  O     1060.506    -617.352    -157.822
  H     1059.815    -615.779    -156.713
  H     1060.930    -616.857    -155.859
  H     1059.252    -617.379    -156.176
  P     1060.991    -618.881    -157.880
  C     1061.126    -620.658    -159.749
  O     1060.540    -619.435    -159.319
  C     1060.680    -620.974    -161.169
  O     1059.318    -621.439    -161.185
  C     1060.730    -619.776    -162.123
  O     1062.057    -619.569    -162.590
  C     1059.778    -620.239    -163.204
  O     1060.431    -621.213    -164.051
  C     1058.672    -620.918    -162.373
  N     1054.478    -618.481    -163.872
  C     1055.368    -619.259    -164.599
  N     1055.130    -619.342    -165.927
  N     1056.406    -619.846    -164.082
  C     1056.572    -619.604    -162.759
  C     1055.758    -618.844    -161.934
  C     1054.589    -618.225    -162.507
  O     1053.762    -617.555    -161.891
  N     1056.276    -618.776    -160.661
  C     1057.358    -619.519    -160.717
  N     1057.580    -620.033    -161.966
  O     1060.560    -619.755    -156.733
  O     1062.583    -618.782    -158.001
  H     1061.231    -620.780    -164.387
  H     1063.004    -618.810    -157.114
  H     1053.708    -618.019    -164.335
  H     1058.013    -619.718    -159.857
  H     1058.216    -621.766    -162.897
  H     1059.429    -619.432    -163.848
  H     1054.531    -618.693    -166.413
  H     1060.321    -618.872    -161.662
  H     1055.789    -619.871    -166.489
  H     1061.306    -621.795    -161.549
  H     1060.802    -621.447    -159.063
  H     1062.221    -620.583    -159.722
  P     1062.456    -618.244    -163.400
  C     1064.674    -616.960    -163.788
  O     1064.040    -618.065    -163.149
  O     1061.627    -617.032    -163.060
  O     1062.393    -618.663    -164.935
  H     1061.500    -618.541    -165.343
  H     1065.715    -616.955    -163.542
  H     1064.224    -616.049    -163.453
  H     1064.558    -617.047    -164.848

 6  7  8  9  10  11  12  13  14  15  26  29  33  34 0
 6-311+G(2d,p)
 ****
 36  38  39  40  41 0
 6-311+G(2d,p)
 ****
 1  2  3  4  5  16  17  18  19  20  21  22  23  24  25 0
 3-21G
 ****
 27  28  30  31  32  35  37  42  43  44  45  46  47 0
 3-21G
 ****
 48  49 0
 3-21G
 ****


