%nproc=1
%NoSave
%Mem=1900MB
#P OB98/GEN NMR

erre ene a

0 1
  C     -330.454     178.969    -239.177
  O     -331.300     177.888    -239.571
  P     -331.944     176.951    -238.444
  C     -331.512     174.881    -239.915
  O     -332.457     175.593    -239.128
  C     -332.177     174.290    -241.164
  O     -333.311     173.451    -240.796
  C     -332.718     175.375    -242.113
  O     -332.619     174.944    -243.477
  C     -334.188     175.439    -241.752
  O     -334.965     176.014    -242.801
  C     -334.478     173.964    -241.468
  N     -339.597     174.033    -241.418
  C     -338.706     174.205    -242.421
  N     -337.361     174.150    -242.362
  C     -336.948     173.872    -241.114
  C     -337.736     173.661    -239.995
  C     -339.127     173.759    -240.178
  N     -340.031     173.608    -239.150
  N     -336.959     173.401    -238.881
  C     -335.717     173.503    -239.318
  N     -335.661     173.753    -240.662
  O     -332.930     177.613    -237.539
  O     -330.660     176.454    -237.619
  H     -335.902     175.860    -242.592
  H     -330.864     176.474    -236.664
  H     -339.136     174.422    -243.393
  H     -334.834     173.421    -238.702
  H     -334.600     173.389    -242.397
  H     -334.324     176.047    -240.851
  H     -332.225     176.349    -242.012
  H     -331.459     173.650    -241.685
  H     -331.063     174.083    -239.321
  H     -341.000     173.815    -239.350
  H     -339.690     173.554    -238.198
  H     -330.693     175.558    -240.183
  P     -331.127     174.767    -244.059
  C     -331.740     175.314    -246.541
  O     -331.303     174.358    -245.596
  O     -330.273     173.863    -243.231
  O     -330.609     176.279    -244.105
  H     -331.209     176.901    -244.541
  H     -331.673     174.875    -247.539
  H     -331.117     176.208    -246.508
  H     -332.784     175.578    -246.346
  H     -330.111     179.489    -240.047
  H     -329.614     178.586    -238.637
  H     -331.003     179.642    -238.552

 3  4  5  6  7  8  9  10  11  12  22  25  29  30  31  32 0
 6-311+G(2d,p)
 ****
 33  36  37 0
 6-311+G(2d,p)
 ****
 1  2  13  14  15  16  17  18  19  20  21  23  24  26 0
 3-21G
 ****
 27  28  34  35  38  39  40  41  42  43  44  45  46  47  48 0
 3-21G
 ****


