%nproc=1
%NoSave
%Mem=1900MB
#P OB98/GEN NMR

erre ene a

0 1
  C     -193.004      65.893    -134.338
  O     -194.032      65.956    -135.306
  H     -193.431      65.861    -133.332
  H     -192.421      64.984    -134.505
  H     -192.344      66.759    -134.436
  P     -195.070      67.171    -135.164
  C     -196.675      65.474    -134.043
  O     -196.088      66.766    -133.991
  C     -198.001      65.469    -133.293
  O     -197.781      65.704    -131.887
  C     -198.986      66.546    -133.732
  O     -199.657      66.195    -134.934
  C     -199.936      66.560    -132.543
  O     -200.873      65.473    -132.659
  C     -198.989      66.313    -131.358
  N     -200.511      69.797    -127.907
  C     -201.121      68.700    -128.410
  N     -200.663      67.828    -129.331
  C     -199.426      68.165    -129.733
  C     -198.679      69.252    -129.310
  C     -199.272      70.098    -128.357
  N     -198.647      71.223    -127.863
  N     -197.449      69.269    -129.930
  C     -197.450      68.213    -130.716
  N     -198.627      67.516    -130.636
  O     -195.967      67.055    -136.488
  O     -194.455      68.526    -135.040
  H     -200.345      64.656    -132.734
  H     -196.203      67.951    -136.790
  H     -202.113      68.493    -128.016
  H     -196.625      67.911    -131.352
  H     -199.416      65.602    -130.644
  H     -200.514      67.484    -132.465
  H     -198.496      67.522    -133.815
  H     -198.446      64.470    -133.399
  H     -195.998      64.748    -133.578
  H     -199.032      71.671    -127.050
  H     -197.714      71.436    -128.202
  H     -196.828      65.197    -135.091
  P     -200.256      67.391    -135.824
  C     -202.615      67.081    -134.788
  O     -201.510      67.955    -134.998
  O     -200.938      66.623    -137.050
  O     -199.259      68.399    -136.283
  H     -200.980      67.212    -137.829
  H     -203.370      67.590    -134.227
  H     -202.289      66.218    -134.247
  H     -203.016      66.779    -135.733

 6  7  8  9  10  11  12  13  14  15  25  28  32  33  34  35 0
 6-311+G(2d,p)
 ****
 36  39  40 0
 6-311+G(2d,p)
 ****
 1  2  3  4  5  16  17  18  19  20  21  22  23  24 0
 3-21G
 ****
 26  27  29  30  31  37  38  41  42  43  44  45  46  47  48 0
 3-21G
 ****


