%nproc=1
%NoSave
%Mem=1900MB
#P OB98/GEN NMR

erre ene a

0 1
  C      284.485    -176.460     255.796
  O      285.439    -177.436     255.434
  P      285.416    -178.207     254.038
  C      285.335    -180.474     255.312
  O      284.778    -179.664     254.277
  C      284.274    -181.277     256.077
  O      283.090    -180.468     256.251
  C      283.846    -182.502     255.264
  O      284.616    -183.687     255.303
  C      282.366    -182.682     255.570
  O      282.129    -183.680     256.563
  C      281.934    -181.303     256.074
  N      277.128    -179.844     255.390
  C      277.751    -180.262     256.550
  N      276.943    -180.501     257.604
  N      279.042    -180.453     256.646
  C      279.706    -180.265     255.481
  C      279.201    -179.838     254.275
  C      277.779    -179.591     254.193
  O      277.174    -179.300     253.160
  N      280.155    -179.833     253.295
  C      281.236    -180.297     253.892
  N      281.001    -180.613     255.208
  O      286.640    -178.093     253.185
  O      284.222    -177.441     253.269
  H      282.664    -184.459     256.338
  H      284.452    -177.413     252.321
  H      276.119    -179.790     255.352
  H      282.192    -180.457     253.411
  H      281.460    -181.387     257.058
  H      281.824    -183.006     254.674
  H      275.935    -180.509     257.521
  H      283.881    -182.201     254.206
  H      277.341    -180.971     258.409
  H      284.619    -181.518     257.088
  H      285.881    -179.807     255.988
  H      286.065    -181.164     254.881
  P      285.221    -184.470     254.049
  C      283.362    -186.222     254.181
  O      284.042    -185.301     253.352
  O      286.126    -185.621     254.700
  O      286.038    -183.637     253.116
  H      286.797    -185.920     254.054
  H      282.809    -186.925     253.553
  H      282.654    -185.689     254.824
  H      284.065    -186.782     254.807
  H      284.709    -176.088     256.774
  H      283.509    -176.898     255.796
  H      284.514    -175.654     255.092

 3  4  5  6  7  8  9  10  11  12  23  26  30  31 0
 6-311+G(2d,p)
 ****
 33  35  36  37  38 0
 6-311+G(2d,p)
 ****
 1  2  13  14  15  16  17  18  19  20  21  22  24  25 0
 3-21G
 ****
 27  28  29  32  34  39  40  41  42  43  44  45  46  47  48  49 0
 3-21G
 ****


