%nproc=1
%NoSave
%Mem=1900MB
#P OB98/GEN NMR

erre ene a

0 1
  C     -553.644     344.460     311.114
  O     -553.906     344.442     309.705
  P     -553.424     343.235     308.763
  C     -555.453     341.649     308.725
  O     -554.703     342.625     308.009
  C     -556.909     341.591     308.248
  O     -557.656     342.717     308.748
  C     -557.078     341.609     306.732
  O     -556.814     340.332     306.185
  C     -558.524     342.083     306.601
  O     -559.432     340.982     306.798
  C     -558.634     343.084     307.760
  N     -561.004     347.384     306.323
  C     -561.476     346.181     306.716
  N     -560.783     345.080     307.078
  C     -559.456     345.320     307.030
  C     -558.829     346.499     306.646
  C     -559.665     347.565     306.276
  N     -559.178     348.787     305.863
  N     -557.459     346.358     306.698
  C     -557.266     345.126     307.127
  N     -558.441     344.461     307.343
  O     -552.579     342.216     309.455
  O     -552.604     343.945     307.585
  H     -560.334     341.324     306.662
  H     -551.930     343.330     307.238
  H     -562.561     346.087     306.740
  H     -556.296     344.672     307.301
  H     -559.615     343.024     308.251
  H     -558.740     342.515     305.621
  H     -556.410     342.358     306.291
  H     -557.362     340.685     308.674
  H     -555.426     341.905     309.789
  H     -559.838     349.494     305.581
  H     -558.180     348.913     305.781
  H     -554.977     340.670     308.584
  P     -555.801     340.181     304.955
  C     -554.811     338.014     305.907
  O     -555.467     338.621     304.806
  O     -554.613     341.083     304.981
  O     -556.718     340.465     303.668
  H     -556.169     340.847     302.962
  H     -553.743     338.247     305.869
  H     -554.941     336.929     305.840
  H     -555.229     338.366     306.853
  H     -554.052     345.352     311.541
  H     -552.587     344.436     311.281
  H     -554.097     343.606     311.572

 3  4  5  6  7  8  9  10  11  12  22  25  29  30  31  32 0
 6-311+G(2d,p)
 ****
 33  36  37 0
 6-311+G(2d,p)
 ****
 1  2  13  14  15  16  17  18  19  20  21  23  24  26 0
 3-21G
 ****
 27  28  34  35  38  39  40  41  42  43  44  45  46  47  48 0
 3-21G
 ****


