%nproc=1
%NoSave
%Mem=1900MB
#P OB98/GEN NMR

erre ene a

0 1
  C      429.547    -312.863    -107.112
  O      429.590    -312.110    -108.312
  P      428.204    -311.829    -109.072
  C      428.667    -309.342    -109.610
  O      427.882    -310.268    -108.872
  C      427.873    -308.085    -109.923
  O      426.824    -308.411    -110.878
  C      427.200    -307.439    -108.702
  O      427.370    -306.016    -108.759
  C      425.723    -307.731    -108.916
  O      424.888    -306.782    -108.261
  C      425.651    -307.699    -110.444
  N      420.645    -307.194    -110.899
  C      421.589    -306.280    -110.474
  N      421.121    -305.078    -110.065
  N      422.872    -306.518    -110.454
  C      423.203    -307.748    -110.925
  C      422.359    -308.733    -111.379
  C      420.935    -308.476    -111.342
  O      420.043    -309.283    -111.616
  N      423.065    -309.837    -111.792
  C      424.327    -309.524    -111.581
  N      424.458    -308.281    -111.013
  O      427.135    -312.563    -108.130
  O      428.129    -312.336    -110.470
  H      425.133    -306.787    -107.317
  H      426.626    -313.211    -108.657
  H      419.669    -306.965    -110.878
  H      425.168    -310.166    -111.798
  H      425.726    -306.661    -110.806
  H      425.491    -308.725    -108.520
  H      420.148    -304.815    -110.084
  H      427.557    -307.817    -107.741
  H      421.800    -304.386    -109.770
  H      428.538    -307.364    -110.420
  H      428.986    -309.812    -110.548
  H      429.561    -309.092    -109.025
  P      427.334    -305.244    -107.347
  C      429.936    -305.078    -107.360
  O      428.767    -305.494    -106.680
  O      426.341    -306.132    -106.469
  O      426.897    -303.820    -107.451
  H      425.939    -305.595    -105.760
  H      429.701    -304.464    -108.237
  H      430.492    -305.957    -107.685
  H      430.555    -304.494    -106.675
  H      430.538    -312.969    -106.722
  H      429.138    -313.831    -107.313
  H      428.933    -312.358    -106.396

 3  4  5  6  7  8  9  10  11  12  23  26  30  31  33  0
 6-311+G(2d,p)
 ****
 35  36  37  38 0
 6-311+G(2d,p)
 ****
 1  2  13  14  15  16  17  18  19  20  21  22  24  25  27  28  29 0
 3-21G
 ****
 32  34  39  40  41  42  43  44  45  46  47  48  49 0
 3-21G
 ****


