%nproc=1
%NoSave
%Mem=1900MB
#P OB98/GEN NMR

erre ene a

0 1
  C     -597.017    -185.435     191.574
  O     -597.555    -186.479     192.403
  P     -598.231    -186.007     193.780
  C     -596.182    -186.913     195.096
  O     -597.066    -185.819     194.873
  C     -594.955    -186.511     195.910
  O     -595.343    -186.145     197.275
  C     -593.900    -187.620     196.041
  O     -592.617    -186.982     196.062
  C     -594.175    -188.202     197.410
  O     -593.060    -188.929     197.915
  C     -594.518    -186.923     198.183
  N     -593.949    -187.173     203.204
  C     -593.000    -187.006     202.192
  N     -591.737    -186.842     202.596
  N     -593.288    -187.013     200.914
  C     -594.619    -187.151     200.670
  C     -595.647    -187.307     201.560
  C     -595.319    -187.332     202.974
  O     -596.116    -187.469     203.897
  N     -596.869    -187.397     200.920
  C     -596.558    -187.357     199.628
  N     -595.213    -187.158     199.434
  O     -599.022    -187.311     194.274
  O     -599.151    -184.832     193.631
  H     -593.274    -189.209     198.828
  H     -599.968    -187.228     194.059
  H     -593.670    -187.176     204.157
  H     -597.248    -187.430     198.826
  H     -593.612    -186.332     198.425
  H     -595.050    -188.874     197.369
  H     -591.451    -186.778     203.570
  H     -593.934    -188.371     195.235
  H     -591.017    -186.663     201.890
  H     -594.511    -185.620     195.445
  H     -595.851    -187.324     194.130
  H     -596.743    -187.721     195.585
  P     -591.675    -187.119     194.758
  C     -590.704    -189.332     195.732
  O     -591.312    -188.671     194.626
  O     -590.297    -186.464     195.235
  O     -592.206    -186.453     193.537
  H     -589.911    -185.949     194.508
  H     -590.958    -190.401     195.663
  H     -591.086    -188.928     196.680
  H     -589.629    -189.208     195.672
  H     -596.595    -185.864     190.689
  H     -596.257    -184.908     192.112
  H     -597.798    -184.756     191.303

 3  4  5  6  7  8  9  10  11  12  23  26  30  31 0
 6-311+G(2d,p)
 ****
 33  35  36  37  38 0
 6-311+G(2d,p)
 ****
 1  2  13  14  15  16  17  18  19  20  21  22  24  25 0
 3-21G
 ****
 27  28  29  32  34  39  40  41  42  43  44  45  46  47  48  49 0
 3-21G
 ****


