%nproc=1
%NoSave
%Mem=1900MB
#P OB98/GEN NMR

erre ene a

0 1
  C      380.021    -218.166      98.519
  O      380.227    -216.809      98.917
  P      379.855    -216.329     100.402
  C      381.859    -214.837     100.958
  O      380.469    -214.864     100.648
  C      382.759    -214.811      99.716
  O      382.200    -213.957      98.687
  C      384.190    -214.329      99.970
  O      385.017    -215.060      99.060
  C      384.114    -212.866      99.575
  O      385.392    -212.299      99.317
  C      383.164    -212.937      98.373
  N      382.528    -211.654      98.090
  C      383.150    -210.831      97.155
  O      384.221    -211.167      96.647
  N      382.577    -209.624      96.849
  C      381.524    -209.230      97.495
  N      381.013    -208.012      97.167
  C      380.880    -210.030      98.556
  C      381.425    -211.223      98.790
  O      380.165    -217.319     101.476
  O      378.276    -216.055     100.331
  H      385.265    -211.360      99.063
  H      377.880    -216.225     101.207
  H      380.019    -209.652      99.088
  H      381.023    -211.888      99.545
  H      383.705    -213.260      97.474
  H      383.654    -212.288     100.388
  H      384.523    -214.472     101.001
  H      382.778    -215.828      99.307
  H      381.500    -207.483      96.453
  H      382.097    -215.724     101.554
  H      380.272    -207.567      97.684
  H      382.065    -213.963     101.586
  P      385.786    -216.395      99.494
  C      384.702    -218.016      97.840
  O      385.883    -217.321      98.191
  O      385.230    -217.076     100.701
  O      387.304    -215.936      99.735
  H      387.765    -216.613     100.262
  H      384.821    -218.435      96.838
  H      383.837    -217.346      97.845
  H      384.530    -218.833      98.548
  H      380.327    -218.290      97.501
  H      378.984    -218.411      98.612
  H      380.598    -218.813      99.146

 3  4  5  6  7  8  9  10  11  12  13  23  27  28  29  30  32 0
 6-311+G(2d,p)
 ****
 34  35 0
 6-311+G(2d,p)
 ****
 1  2  14  15  16  17  18  19  20  21  22  24  25  26 0
 3-21G
 ****
 31  33  36  37  38  39  40  41  42  43  44  45  46 0
 3-21G
 ****


