%nproc=1
%NoSave
%Mem=1900MB
#P OB98/GEN NMR

erre ene a

0 1
  C      -48.786      59.389      -7.679
  O      -49.264      60.314      -6.697
  P      -49.394      61.853      -7.127
  C      -47.023      62.756      -6.580
  O      -47.950      62.382      -7.587
  C      -45.788      63.443      -7.182
  O      -44.997      64.085      -6.144
  C      -44.852      62.480      -7.919
  O      -44.203      63.202      -8.972
  C      -43.824      62.142      -6.857
  O      -42.629      61.610      -7.429
  C      -43.679      63.500      -6.173
  N      -39.692      64.552      -3.270
  C      -39.895      64.774      -4.618
  N      -38.901      65.400      -5.282
  N      -40.978      64.415      -5.257
  C      -41.900      63.830      -4.454
  C      -41.814      63.548      -3.111
  C      -40.601      63.929      -2.422
  O      -40.360      63.745      -1.233
  N      -42.948      62.924      -2.657
  C      -43.714      62.824      -3.727
  N      -43.138      63.390      -4.832
  O      -49.633      62.596      -5.728
  O      -50.510      62.122      -8.080
  H      -42.187      61.074      -6.735
  H      -50.557      62.899      -5.671
  H      -38.835      64.839      -2.830
  H      -44.685      62.353      -3.756
  H      -43.017      64.177      -6.729
  H      -44.234      61.396      -6.165
  H      -38.065      65.749      -4.839
  H      -45.339      61.593      -8.334
  H      -39.042      65.613      -6.262
  H      -46.125      64.228      -7.868
  H      -46.708      61.876      -6.013
  H      -47.528      63.407      -5.858
  P      -44.947      63.240     -10.391
  C      -44.435      60.803     -11.121
  O      -45.407      61.737     -10.695
  O      -43.757      63.486     -11.432
  O      -46.016      64.276     -10.506
  H      -44.096      63.909     -12.241
  H      -44.179      60.147     -10.285
  H      -43.528      61.292     -11.490
  H      -44.859      60.199     -11.928
  H      -48.751      58.407      -7.256
  H      -47.805      59.678      -7.993
  H      -49.445      59.391      -8.522

 3  4  5  6  7  8  9  10  11  12  23  26  30  31 0
 6-311+G(2d,p)
 ****
 33  35  36  37  38 0
 6-311+G(2d,p)
 ****
 1  2  13  14  15  16  17  18  19  20  21  22  24  25 0
 3-21G
 ****
 27  28  29  32  34  39  40  41  42  43  44  45  46  47  48  49 0
 3-21G
 ****


