%nproc=1
%NoSave
%Mem=1900MB
#P OB98/GEN NMR

erre ene a

0 1
  C     -817.223    -395.741    -707.798
  O     -817.507    -396.328    -706.545
  H     -818.112    -395.813    -708.429
  H     -816.405    -396.279    -708.289
  H     -816.957    -394.687    -707.688
  P     -816.433    -396.178    -705.362
  C     -817.623    -394.133    -704.332
  O     -816.431    -394.632    -704.931
  C     -817.271    -393.234    -703.152
  O     -816.555    -393.989    -702.147
  C     -816.366    -392.059    -703.509
  O     -817.095    -391.042    -704.169
  C     -815.838    -391.678    -702.134
  O     -816.798    -390.889    -701.416
  C     -815.661    -393.068    -701.476
  N     -814.283    -393.557    -701.518
  C     -813.535    -393.406    -700.352
  O     -813.979    -392.855    -699.344
  N     -812.253    -393.893    -700.396
  C     -811.642    -394.427    -701.493
  O     -810.469    -394.797    -701.492
  C     -812.466    -394.529    -702.704
  C     -813.728    -394.097    -702.663
  O     -815.085    -396.755    -705.630
  O     -817.147    -396.895    -704.119
  H     -816.366    -390.621    -700.582
  H     -816.783    -397.794    -704.007
  H     -811.701    -393.777    -699.563
  H     -812.007    -394.945    -703.593
  H     -814.352    -394.163    -703.548
  H     -815.979    -393.034    -700.426
  H     -814.922    -391.090    -702.183
  H     -815.525    -392.405    -704.125
  H     -818.207    -392.882    -702.700
  H     -818.223    -394.983    -703.981
  H     -818.192    -393.579    -705.081
  P     -816.366    -390.036    -705.175
  C     -816.339    -391.408    -707.341
  O     -815.563    -390.922    -706.255
  O     -815.555    -388.965    -704.525
  O     -817.563    -389.416    -706.040
  H     -817.730    -388.493    -705.758
  H     -815.716    -391.980    -707.996
  H     -816.758    -390.582    -707.878
  H     -817.127    -392.027    -706.967

 6  7  8  9  10  11  12  13  14  15  16  26  31  32  33  34  35 0
 6-311+G(2d,p)
 ****
 36  37 0
 6-311+G(2d,p)
 ****
 1  2  3  4  5  17  18  19  20  21  22  23  24  25 0
 3-21G
 ****
 27  28  29  30  38  39  40  41  42  43  44  45 0
 3-21G
 ****


