%nproc=1
%NoSave
%Mem=1900MB
#P OB98/GEN NMR

erre ene a

0 1
  C      512.176     373.577    -307.864
  O      512.059     372.194    -307.551
  P      513.233     371.227    -308.067
  C      511.736     369.225    -308.742
  O      512.749     369.694    -307.876
  C      511.030     367.990    -308.148
  O      511.945     366.861    -308.073
  C      510.468     368.216    -306.743
  O      509.277     367.436    -306.616
  C      511.537     367.612    -305.845
  O      511.039     367.311    -304.544
  C      511.955     366.409    -306.701
  N      514.739     364.431    -302.898
  C      513.448     364.852    -302.958
  N      512.788     365.386    -303.996
  C      513.589     365.438    -305.091
  C      514.921     365.055    -305.177
  C      515.505     364.532    -304.016
  N      516.821     364.142    -303.945
  N      515.413     365.313    -306.442
  C      514.387     365.824    -307.110
  N      513.266     365.895    -306.339
  O      514.373     371.407    -306.957
  O      513.735     371.566    -309.434
  H      511.683     366.723    -304.107
  H      515.116     371.913    -307.328
  H      512.879     364.742    -302.041
  H      514.426     366.182    -308.131
  H      511.244     365.567    -306.610
  H      512.369     368.313    -305.746
  H      510.276     369.263    -306.489
  H      510.211     367.697    -308.826
  H      512.158     368.953    -309.717
  H      517.167     363.808    -303.050
  H      517.408     364.260    -304.746
  H      511.023     370.025    -308.933
  P      507.891     368.243    -306.517
  C      506.908     366.216    -305.230
  O      506.745     367.155    -306.283
  O      507.649     368.751    -308.016
  O      507.926     369.372    -305.539
  H      507.096     369.554    -308.014
  H      505.931     366.080    -304.744
  H      507.637     366.548    -304.483
  H      507.226     365.262    -305.648
  H      511.335     374.105    -307.465
  H      512.204     373.701    -308.926
  H      513.077     373.965    -307.436

 3  4  5  6  7  8  9  10  11  12  22  25  29  30  31  32 0
 6-311+G(2d,p)
 ****
 33  36  37 0
 6-311+G(2d,p)
 ****
 1  2  13  14  15  16  17  18  19  20  21  23  24  26 0
 3-21G
 ****
 27  28  34  35  38  39  40  41  42  43  44  45  46  47  48 0
 3-21G
 ****


