%nproc=1
%NoSave
%Mem=1900MB
#P OB98/GEN NMR

erre ene a

0 1
  C     -104.088      23.147     -10.495
  O     -103.740      21.823     -10.870
  P     -104.865      20.691     -11.054
  C     -106.689      19.802      -9.451
  O     -105.402      20.396      -9.572
  C     -106.613      18.584      -8.533
  O     -105.854      17.541      -9.175
  C     -105.922      18.841      -7.200
  O     -106.775      19.542      -6.308
  C     -105.563      17.418      -6.782
  O     -106.710      16.757      -6.222
  C     -105.197      16.774      -8.137
  N     -103.756      16.707      -8.363
  C     -103.148      15.466      -8.141
  O     -103.806      14.491      -7.783
  N     -101.797      15.348      -8.364
  C     -101.109      16.380      -8.751
  N      -99.788      16.186      -9.022
  C     -101.700      17.717      -8.942
  C     -103.015      17.806      -8.738
  O     -104.421      19.483     -11.809
  O     -106.098      21.454     -11.723
  H     -106.419      15.858      -5.969
  H     -106.063      21.471     -12.713
  H     -101.085      18.550      -9.253
  H     -103.530      18.749      -8.878
  H     -105.612      15.760      -8.199
  H     -104.754      17.369      -6.045
  H     -105.003      19.422      -7.350
  H     -107.635      18.215      -8.369
  H      -99.467      15.226      -9.046
  H     -107.021      19.482     -10.445
  H      -99.264      16.844      -9.587
  H     -107.395      20.545      -9.065
  P     -106.089      20.545      -5.260
  C     -104.143      20.291      -3.562
  O     -105.117      19.637      -4.356
  O     -107.293      20.939      -4.284
  O     -105.448      21.743      -5.880
  H     -107.642      21.821      -4.512
  H     -103.741      19.568      -2.845
  H     -104.588      21.124      -3.011
  H     -103.326      20.650      -4.193
  H     -103.202      23.743     -10.426
  H     -104.581      23.131      -9.546
  H     -104.743      23.565     -11.230

 3  4  5  6  7  8  9  10  11  12  13  23  27  28  29  30  32 0
 6-311+G(2d,p)
 ****
 34  35 0
 6-311+G(2d,p)
 ****
 1  2  14  15  16  17  18  19  20  21  22  24  25  26 0
 3-21G
 ****
 31  33  36  37  38  39  40  41  42  43  44  45  46 0
 3-21G
 ****


