%nproc=1
%NoSave
%Mem=1900MB
#P OB98/GEN NMR

erre ene a

0 1
  C     -363.440    -104.148     -98.081
  O     -364.499    -104.832     -98.721
  H     -363.757    -103.886     -97.067
  H     -363.194    -103.228     -98.617
  H     -362.557    -104.789     -98.014
  P     -364.314    -105.257    -100.254
  C     -362.293    -106.617     -99.379
  O     -362.801    -105.766    -100.402
  C     -360.904    -107.131     -99.750
  O     -360.314    -107.831     -98.637
  C     -360.895    -108.118    -100.913
  O     -361.081    -107.444    -102.140
  C     -359.531    -108.762    -100.720
  O     -358.485    -107.911    -101.214
  C     -359.464    -108.870     -99.177
  N     -359.857    -110.180     -98.667
  C     -358.939    -110.813     -97.821
  O     -357.864    -110.272     -97.557
  N     -359.259    -112.049     -97.316
  C     -360.405    -112.584     -97.588
  N     -360.663    -113.808     -97.052
  C     -361.415    -111.936     -98.446
  C     -361.075    -110.754     -98.956
  O     -364.728    -104.245    -101.276
  O     -365.164    -106.609    -100.383
  H     -358.792    -106.993    -101.074
  H     -366.066    -106.416    -100.699
  H     -362.365    -112.415     -98.639
  H     -361.761    -110.208     -99.597
  H     -358.446    -108.659     -98.823
  H     -359.444    -109.712    -101.245
  H     -361.662    -108.886    -100.765
  H     -360.269    -106.262     -99.967
  H     -359.946    -114.205     -96.452
  H     -362.991    -107.455     -99.284
  H     -361.572    -114.242     -97.062
  H     -362.255    -106.087     -98.421
  P     -361.492    -108.230    -103.477
  C     -363.431    -106.634    -104.028
  O     -363.062    -107.959    -103.677
  O     -361.092    -109.666    -103.516
  O     -360.839    -107.354    -104.645
  H     -359.866    -107.526    -104.703
  H     -364.494    -106.576    -104.133
  H     -362.966    -106.368    -104.954
  H     -363.111    -105.960    -103.261

 6  7  8  9  10  11  12  13  14  15  16  26  30  31  32  33  35 0
 6-311+G(2d,p)
 ****
 37  38 0
 6-311+G(2d,p)
 ****
 1  2  3  4  5  17  18  19  20  21  22  23  24  25 0
 3-21G
 ****
 27  28  29  34  36  39  40  41  42  43  44  45  46 0
 3-21G
 ****


