%nproc=1
%NoSave
%Mem=1900MB
#P OB98/GEN NMR

erre ene a

0 1
  C      182.949    -170.629     -76.267
  O      183.181    -169.507     -75.440
  H      183.747    -170.687     -77.009
  H      181.993    -170.528     -76.789
  H      182.955    -171.547     -75.671
  P      182.112    -169.152     -74.300
  C      182.221    -170.901     -72.401
  O      182.728    -169.672     -72.910
  C      183.189    -171.486     -71.363
  O      184.401    -171.873     -72.060
  C      183.560    -170.470     -70.271
  O      183.352    -170.972     -68.950
  C      184.971    -170.042     -70.660
  O      185.760    -169.585     -69.580
  C      185.522    -171.275     -71.381
  N      186.595    -170.974     -72.330
  C      187.899    -170.947     -71.835
  O      188.214    -171.163     -70.669
  N      188.872    -170.649     -72.754
  C      188.678    -170.376     -74.080
  O      189.591    -170.122     -74.853
  C      187.279    -170.393     -74.534
  C      186.317    -170.687     -73.654
  O      180.714    -169.598     -74.566
  O      182.207    -167.560     -74.161
  H      185.636    -170.220     -68.843
  H      181.424    -167.150     -74.580
  H      189.821    -170.640     -72.414
  H      187.087    -170.168     -75.575
  H      185.274    -170.712     -73.957
  H      185.911    -171.998     -70.661
  H      184.897    -169.215     -71.378
  H      182.899    -169.595     -70.313
  H      182.745    -172.392     -70.939
  H      182.107    -171.592     -73.246
  H      181.241    -170.735     -71.942
  P      182.418    -170.295     -67.849
  C      180.172    -171.656     -67.995
  O      181.387    -171.391     -67.308
  O      181.855    -168.959     -68.202
  O      183.408    -170.085     -66.590
  H      183.101    -169.275     -66.130
  H      179.627    -172.416     -67.476
  H      180.389    -171.989     -68.989
  H      179.585    -170.763     -68.038

 6  7  8  9  10  11  12  13  14  15  16  26  31  32  33  34  35 0
 6-311+G(2d,p)
 ****
 36  37 0
 6-311+G(2d,p)
 ****
 1  2  3  4  5  17  18  19  20  21  22  23  24  25 0
 3-21G
 ****
 27  28  29  30  38  39  40  41  42  43  44  45 0
 3-21G
 ****


