%nproc=1
%NoSave
%Mem=1900MB
#P OB98/GEN NMR

erre ene a

0 1
  C       19.579     148.459       3.109
  O       18.902     148.499       4.355
  P       17.770     147.418       4.703
  C       15.965     148.891       3.617
  O       16.599     147.617       3.623
  C       14.463     148.743       3.380
  O       14.232     148.540       1.965
  C       13.844     147.563       4.121
  O       12.526     147.923       4.545
  C       13.723     146.477       3.064
  O       12.668     145.556       3.382
  C       13.495     147.313       1.799
  N       12.125     144.830      -2.484
  C       11.392     145.405      -1.505
  N       11.820     146.024      -0.382
  C       13.163     146.067      -0.352
  C       14.044     145.527      -1.278
  C       13.474     144.880      -2.389
  N       14.226     144.306      -3.391
  N       15.354     145.743      -0.890
  C       15.260     146.416       0.236
  N       13.958     146.645       0.598
  O       17.311     147.419       6.122
  O       18.412     146.014       4.287
  H       11.822     146.022       3.223
  H       18.158     145.321       4.926
  H       10.315     145.358      -1.637
  H       16.098     146.748       0.831
  H       12.436     147.566       1.669
  H       14.660     145.912       3.009
  H       14.440     147.240       4.980
  H       13.971     149.682       3.661
  H       16.399     149.490       2.810
  H       13.734     143.972      -4.205
  H       15.220     144.495      -3.409
  H       16.158     149.399       4.568
  P       12.044     147.296       5.948
  C       10.491     145.622       4.698
  O       11.569     145.808       5.586
  O       11.061     148.175       6.648
  O       13.444     147.117       6.708
  H       14.189     147.035       6.072
  H       10.293     144.548       4.607
  H       10.745     146.009       3.708
  H        9.591     146.117       5.074
  H       20.292     149.256       3.065
  H       18.871     148.570       2.315
  H       20.085     147.522       3.008

 3  4  5  6  7  8  9  10  11  12  22  25  29  30  31  32 0
 6-311+G(2d,p)
 ****
 33  36  37 0
 6-311+G(2d,p)
 ****
 1  2  13  14  15  16  17  18  19  20  21  23  24  26 0
 3-21G
 ****
 27  28  34  35  38  39  40  41  42  43  44  45  46  47  48 0
 3-21G
 ****


