%nproc=1
%NoSave
%Mem=1900MB
#P OB98/GEN NMR

erre ene a

0 1
  C     -181.438     250.818     236.447
  O     -181.671     250.182     235.207
  H     -181.183     251.871     236.292
  H     -182.348     250.759     237.048
  H     -180.627     250.314     236.979
  P     -180.479     250.258     234.133
  C     -179.086     248.541     235.486
  O     -179.140     249.838     234.913
  C     -178.015     247.705     234.796
  O     -176.708     248.268     235.043
  C     -177.923     246.261     235.273
  O     -178.937     245.447     234.699
  C     -176.539     245.884     234.766
  O     -176.613     245.551     233.365
  C     -175.748     247.182     234.957
  N     -171.097     246.190     236.892
  C     -171.598     246.067     235.644
  N     -172.844     246.340     235.204
  C     -173.612     246.802     236.207
  C     -173.240     246.979     237.525
  C     -171.920     246.647     237.864
  N     -171.420     246.762     239.147
  N     -174.289     247.484     238.262
  C     -175.282     247.608     237.404
  N     -174.920     247.201     236.146
  O     -180.291     251.831     233.894
  O     -180.729     249.536     232.851
  H     -177.236     244.804     233.290
  H     -180.057     251.982     232.960
  H     -170.897     245.704     234.893
  H     -176.264     247.988     237.645
  H     -175.107     247.394     234.092
  H     -176.116     245.019     235.283
  H     -177.936     246.205     236.369
  H     -178.198     247.747     233.713
  H     -180.058     248.050     235.364
  H     -170.429     246.698     239.286
  H     -172.045     247.110     239.866
  H     -178.866     248.637     236.555
  P     -180.144     244.983     235.651
  C     -181.912     246.413     234.400
  O     -181.205     246.181     235.615
  O     -179.510     245.096     237.119
  O     -180.680     243.616     235.383
  H     -179.973     244.488     237.727
  H     -182.580     247.239     234.528
  H     -182.472     245.539     234.140
  H     -181.215     246.636     233.619

 6  7  8  9  10  11  12  13  14  15  25  28  32  33  34  35 0
 6-311+G(2d,p)
 ****
 36  39  40 0
 6-311+G(2d,p)
 ****
 1  2  3  4  5  16  17  18  19  20  21  22  23  24 0
 3-21G
 ****
 26  27  29  30  31  37  38  41  42  43  44  45  46  47  48 0
 3-21G
 ****


