%nproc=1
%NoSave
%Mem=1900MB
#P OB98/GEN NMR

erre ene a

0 1
  C       38.307    -310.107    -576.312
  O       39.196    -311.147    -575.940
  P       38.999    -312.632    -576.512
  C       39.919    -311.675    -578.716
  O       38.929    -312.502    -578.111
  C       40.511    -312.357    -579.943
  O       41.357    -313.448    -579.515
  C       39.457    -312.935    -580.886
  O       39.898    -312.785    -582.241
  C       39.433    -314.421    -580.552
  O       38.979    -315.200    -581.671
  C       40.890    -314.659    -580.146
  N       39.645    -319.519    -579.069
  C       39.348    -318.737    -580.127
  N       39.695    -317.442    -580.336
  C       40.469    -316.992    -579.335
  C       40.850    -317.687    -578.193
  C       40.406    -319.011    -578.077
  N       40.726    -319.822    -577.009
  N       41.628    -316.881    -577.376
  C       41.716    -315.735    -578.015
  N       41.041    -315.757    -579.211
  O       37.876    -313.401    -575.907
  O       40.409    -313.348    -576.270
  H       39.480    -314.895    -582.454
  H       40.276    -314.279    -576.007
  H       38.755    -319.201    -580.906
  H       42.246    -314.859    -577.660
  H       41.530    -314.853    -581.020
  H       38.747    -314.599    -579.719
  H       38.470    -312.471    -580.761
  H       41.142    -311.635    -580.479
  H       40.716    -311.498    -577.985
  H       40.462    -320.789    -577.066
  H       41.433    -319.502    -576.359
  H       39.475    -310.705    -578.982
  P       38.793    -312.260    -583.285
  C       39.758    -310.040    -584.246
  O       38.950    -310.664    -583.277
  O       37.443    -312.818    -583.002
  O       39.440    -312.739    -584.671
  H       40.412    -312.835    -584.608
  H       39.768    -308.960    -584.055
  H       39.345    -310.214    -585.248
  H       40.784    -310.417    -584.199
  H       38.601    -309.197    -575.831
  H       37.312    -310.364    -576.012
  H       38.337    -309.975    -577.373

 3  4  5  6  7  8  9  10  11  12  22  25  29  30  31  32 0
 6-311+G(2d,p)
 ****
 33  36  37 0
 6-311+G(2d,p)
 ****
 1  2  13  14  15  16  17  18  19  20  21  23  24  26 0
 3-21G
 ****
 27  28  34  35  38  39  40  41  42  43  44  45  46  47  48 0
 3-21G
 ****


