%nproc=1
%NoSave
%Mem=1900MB
#P OB98/GEN NMR

erre ene a

0 1
  C     -402.262     208.599    -121.029
  O     -402.298     207.574    -122.002
  H     -403.231     209.102    -120.992
  H     -402.063     208.151    -120.051
  H     -401.474     209.322    -121.254
  P     -402.278     208.022    -123.542
  C     -400.716     205.981    -123.918
  O     -401.834     206.724    -124.386
  C     -400.645     204.624    -124.618
  O     -401.777     203.818    -124.179
  C     -400.692     204.704    -126.155
  O     -399.804     203.713    -126.686
  C     -402.124     204.306    -126.482
  O     -402.258     203.760    -127.791
  C     -402.416     203.307    -125.365
  N     -406.424     200.397    -126.536
  C     -405.094     200.183    -126.628
  N     -404.087     200.993    -126.241
  C     -404.574     202.102    -125.651
  C     -405.900     202.463    -125.480
  C     -406.858     201.553    -125.970
  N     -408.214     201.797    -125.946
  N     -405.991     203.703    -124.881
  C     -404.743     204.094    -124.716
  N     -403.851     203.162    -125.169
  O     -400.990     208.972    -123.606
  O     -403.509     208.717    -124.029
  H     -402.117     204.471    -128.445
  H     -401.245     209.885    -123.378
  H     -404.800     199.235    -127.079
  H     -404.435     205.051    -124.310
  H     -402.009     202.310    -125.573
  H     -402.774     205.187    -126.405
  H     -400.432     205.690    -126.558
  H     -399.737     204.106    -124.287
  H     -400.820     205.818    -122.838
  H     -408.815     201.142    -126.416
  H     -408.543     202.694    -125.629
  H     -399.798     206.552    -124.105
  P     -398.604     204.227    -127.620
  C     -397.308     202.250    -126.520
  O     -397.468     203.096    -127.653
  O     -397.936     205.394    -126.746
  O     -399.044     204.720    -128.959
  H     -397.578     206.088    -127.331
  H     -396.514     201.556    -126.702
  H     -398.217     201.714    -126.344
  H     -397.072     202.844    -125.662

 6  7  8  9  10  11  12  13  14  15  25  28  32  33  34  35 0
 6-311+G(2d,p)
 ****
 36  39  40 0
 6-311+G(2d,p)
 ****
 1  2  3  4  5  16  17  18  19  20  21  22  23  24 0
 3-21G
 ****
 26  27  29  30  31  37  38  41  42  43  44  45  46  47 0
 3-21G
 ****
 48 0
 3-21G
 ****


