%nproc=1
%NoSave
%Mem=1900MB
#P OB98/GEN NMR

erre ene a

0 1
  C      382.563     131.504     424.356
  O      382.314     132.814     423.884
  H      383.614     131.431     424.640
  H      382.359     130.769     423.576
  H      381.946     131.295     425.236
  P      380.863     133.150     423.294
  C      381.629     132.510     420.907
  O      381.069     133.511     421.746
  C      382.135     133.121     419.594
  O      381.005     133.693     418.876
  C      383.169     134.244     419.788
  O      384.033     134.235     418.645
  C      382.277     135.472     419.772
  O      383.028     136.651     419.611
  C      381.296     135.092     418.663
  N      380.094     135.911     418.669
  C      379.946     136.801     417.603
  O      380.807     136.873     416.727
  N      378.837     137.609     417.570
  C      377.990     137.577     418.550
  N      376.920     138.415     418.463
  C      378.140     136.693     419.726
  C      379.203     135.892     419.719
  O      380.059     134.141     424.066
  O      380.131     131.725     423.237
  H      383.612     136.588     418.819
  H      379.480     131.660     423.962
  H      377.417     136.720     420.527
  H      379.403     135.208     420.537
  H      381.772     135.180     417.675
  H      381.746     135.573     420.726
  H      383.749     134.136     420.707
  H      382.538     132.316     418.965
  H      376.862     139.011     417.648
  H      380.843     131.777     420.700
  H      376.210     138.494     419.177
  H      382.454     132.005     421.420
  P      385.413     133.413     418.607
  C      387.062     135.217     419.429
  O      386.619     134.430     418.329
  O      385.384     132.231     417.693
  O      385.658     132.944     420.120
  H      386.140     132.092     420.115
  H      387.865     135.850     419.114
  H      387.401     134.574     420.214
  H      386.253     135.819     419.786

 6  7  8  9  10  11  12  13  14  15  16  26  30  31  32  33  35 0
 6-311+G(2d,p)
 ****
 37  38 0
 6-311+G(2d,p)
 ****
 1  2  3  4  5  17  18  19  20  21  22  23  24  25 0
 3-21G
 ****
 27  28  29  34  36  39  40  41  42  43  44  45  46 0
 3-21G
 ****


