%nproc=1
%NoSave
%Mem=1900MB
#P OB98/GEN NMR

erre ene a

0 1
  C      -86.647     107.449    -167.829
  O      -86.030     107.072    -166.614
  H      -86.166     106.941    -168.669
  H      -87.700     107.155    -167.796
  H      -86.588     108.532    -167.965
  P      -84.466     107.407    -166.480
  C      -83.608     105.184    -167.490
  O      -83.718     106.591    -167.646
  C      -82.433     104.657    -168.309
  O      -82.379     103.214    -168.146
  C      -82.530     104.963    -169.814
  O      -81.308     105.544    -170.288
  C      -82.702     103.602    -170.460
  O      -82.070     103.507    -171.732
  C      -82.077     102.664    -169.435
  N      -81.589      98.268    -171.972
  C      -80.730      99.295    -171.793
  N      -80.884     100.394    -171.027
  C      -82.059     100.357    -170.374
  C      -83.025      99.366    -170.437
  C      -82.763      98.288    -171.299
  N      -83.662      97.269    -171.524
  N      -84.104      99.680    -169.630
  C      -83.812     100.862    -169.125
  N      -82.594     101.318    -169.557
  O      -84.041     106.632    -165.142
  O      -84.147     108.861    -166.396
  H      -82.222     102.604    -172.065
  H      -83.717     107.283    -164.492
  H      -79.797      99.230    -172.346
  H      -84.461     101.448    -168.484
  H      -80.984     102.622    -169.535
  H      -83.771     103.399    -170.587
  H      -83.365     105.630    -170.054
  H      -81.503     105.064    -167.894
  H      -84.530     104.703    -167.836
  H      -83.443      96.600    -172.244
  H      -84.581      97.338    -171.111
  H      -83.469     104.952    -166.428
  P      -81.304     107.144    -170.465
  C      -81.568     107.164    -173.048
  O      -82.139     107.499    -171.790
  O      -79.786     107.461    -170.863
  O      -81.712     107.885    -169.235
  H      -79.405     108.104    -170.234
  H      -82.234     107.459    -173.832
  H      -81.406     106.107    -173.096
  H      -80.634     107.674    -173.163

 6  7  8  9  10  11  12  13  14  15  25  28  32  33  34  35 0
 6-311+G(2d,p)
 ****
 36  39  40 0
 6-311+G(2d,p)
 ****
 1  2  3  4  5  16  17  18  19  20  21  22  23  24 0
 3-21G
 ****
 26  27  29  30  31  37  38  41  42  43  44  45  46  47  48 0
 3-21G
 ****


