%nproc=1
%NoSave
%Mem=1900MB
#P OB98/GEN NMR

erre ene a

0 1
  C      814.091     306.177    -570.308
  O      815.358     306.485    -570.853
  H      814.224     305.432    -569.520
  H      813.427     305.760    -571.073
  H      813.640     307.072    -569.868
  P      815.421     307.477    -572.115
  C      817.831     308.264    -571.572
  O      816.989     307.561    -572.471
  C      819.146     307.513    -571.370
  O      818.932     306.281    -570.641
  C      819.836     307.080    -572.663
  O      820.461     308.156    -573.356
  C      820.840     306.084    -572.102
  O      821.924     306.795    -571.481
  C      819.976     305.357    -571.042
  N      819.386     304.110    -571.543
  C      820.272     303.064    -571.818
  O      821.484     303.198    -571.637
  N      819.772     301.887    -572.327
  C      818.493     301.775    -572.557
  N      818.060     300.609    -573.114
  C      817.525     302.851    -572.270
  C      818.029     303.980    -571.773
  O      814.726     308.790    -571.963
  O      814.861     306.601    -573.340
  H      821.537     307.561    -571.019
  H      814.869     307.176    -574.143
  H      816.478     302.709    -572.486
  H      817.388     304.814    -571.551
  H      820.569     305.132    -570.148
  H      821.271     305.427    -572.868
  H      819.137     306.545    -573.318
  H      819.795     308.144    -570.758
  H      818.761     299.916    -573.336
  H      817.294     308.382    -570.619
  H      817.154     300.552    -573.568
  H      818.065     309.256    -571.970
  P      820.072     308.379    -574.902
  C      820.822     310.873    -574.773
  O      820.955     309.613    -575.417
  O      818.594     308.974    -574.812
  O      820.161     307.159    -575.771
  H      817.926     308.272    -574.896
  H      821.477     311.581    -575.236
  H      821.078     310.774    -573.739
  H      819.811     311.213    -574.859

 6  7  8  9  10  11  12  13  14  15  16  26  30  31  32  33  35 0
 6-311+G(2d,p)
 ****
 37  38 0
 6-311+G(2d,p)
 ****
 1  2  3  4  5  17  18  19  20  21  22  23  24  25 0
 3-21G
 ****
 27  28  29  34  36  39  40  41  42  43  44  45  46 0
 3-21G
 ****


