%nproc=1
%NoSave
%Mem=1900MB
#P OB98/GEN NMR

erre ene a

0 1
  C      221.606    -117.953      97.066
  O      222.256    -117.679      98.292
  H      220.814    -117.219      96.901
  H      222.336    -117.870      96.257
  H      221.186    -118.964      97.064
  P      221.461    -118.033      99.641
  C      221.865    -117.640     102.178
  O      222.333    -117.433     100.853
  C      223.032    -117.634     103.169
  O      223.792    -118.866     102.988
  C      224.005    -116.454     102.993
  O      224.428    -116.021     104.294
  C      225.190    -117.088     102.273
  O      226.406    -116.382     102.504
  C      225.175    -118.496     102.853
  N      229.791    -119.738     101.102
  C      229.400    -118.979     102.148
  N      228.141    -118.741     102.580
  C      227.246    -119.438     101.851
  C      227.499    -120.262     100.761
  C      228.847    -120.382     100.375
  N      229.252    -121.097      99.270
  N      226.314    -120.750     100.248
  C      225.366    -120.219     100.996
  N      225.883    -119.417     101.976
  O      221.686    -119.618      99.768
  O      220.014    -117.670      99.648
  H      227.125    -116.831     102.019
  H      220.989    -120.085      99.272
  H      230.191    -118.488     102.706
  H      224.300    -120.353     100.853
  H      225.645    -118.556     103.841
  H      224.997    -117.097     101.194
  H      223.581    -115.612     102.443
  H      222.624    -117.656     104.185
  H      221.358    -118.608     102.228
  H      230.228    -121.047      99.007
  H      228.554    -121.489      98.657
  H      221.148    -116.854     102.439
  P      223.584    -114.847     104.989
  C      221.822    -115.221     106.878
  O      223.183    -115.317     106.471
  O      222.191    -114.879     104.202
  O      224.240    -113.505     104.909
  H      221.818    -113.981     104.143
  H      221.725    -115.572     107.884
  H      221.213    -115.819     106.232
  H      221.505    -114.201     106.824

 6  7  8  9  10  11  12  13  14  15  25  28  32  33  34  35 0
 6-311+G(2d,p)
 ****
 36  39  40 0
 6-311+G(2d,p)
 ****
 1  2  3  4  5  16  17  18  19  20  21  22  23  24 0
 3-21G
 ****
 26  27  29  30  31  37  38  41  42  43  44  45  46  47 0
 3-21G
 ****
 48 0
 3-21G
 ****


