%nproc=1
%NoSave
%Mem=1900MB
#P OB98/GEN NMR

erre ene a

0 1
  C       75.933     230.435    -254.642
  O       75.456     229.391    -255.461
  H       76.836     230.095    -254.129
  H       75.182     230.693    -253.889
  H       76.177     231.316    -255.241
  P       74.220     229.718    -256.431
  C       72.355     228.499    -255.100
  O       73.170     228.514    -256.261
  C       71.232     227.471    -255.250
  O       70.338     227.909    -256.306
  C       71.727     226.067    -255.606
  O       70.923     225.109    -254.912
  C       71.466     225.959    -257.096
  O       71.314     224.610    -257.533
  C       70.216     226.833    -257.257
  N       70.081     227.329    -258.623
  C       69.337     226.541    -259.507
  O       68.841     225.480    -259.124
  N       69.221     226.938    -260.812
  C       69.865     227.986    -261.225
  N       69.735     228.314    -262.540
  C       70.717     228.810    -260.345
  C       70.772     228.433    -259.068
  O       74.823     229.475    -257.891
  O       73.631     231.079    -256.278
  H       70.533     224.224    -257.078
  H       74.410     230.068    -258.548
  H       71.253     229.660    -260.740
  H       71.377     228.971    -258.349
  H       69.312     226.264    -256.998
  H       72.308     226.397    -257.648
  H       72.780     225.904    -255.357
  H       70.649     227.457    -254.323
  H       69.156     227.713    -263.115
  H       71.913     229.490    -254.963
  H       70.224     229.079    -262.977
  H       72.972     228.263    -254.225
  P       71.494     224.562    -253.518
  C       73.430     223.080    -254.418
  O       72.160     223.126    -253.779
  O       70.173     224.222    -252.682
  O       72.365     225.542    -252.802
  H       70.055     224.873    -251.967
  H       73.741     222.061    -254.521
  H       74.146     223.613    -253.828
  H       73.359     223.531    -255.386

 6  7  8  9  10  11  12  13  14  15  16  26  30  31  32  33  35 0
 6-311+G(2d,p)
 ****
 37  38 0
 6-311+G(2d,p)
 ****
 1  2  3  4  5  17  18  19  20  21  22  23  24  25 0
 3-21G
 ****
 27  28  29  34  36  39  40  41  42  43  44  45  46 0
 3-21G
 ****


