%nproc=1
%NoSave
%Mem=1900MB
#P OB98/GEN NMR

erre ene a

0 1
  C     -646.285    -891.910     565.624
  O     -647.206    -892.570     566.470
  P     -647.444    -894.140     566.162
  C     -646.645    -894.830     568.536
  O     -647.677    -894.880     567.581
  C     -647.211    -894.960     569.954
  O     -647.851    -893.750     570.401
  C     -648.231    -896.090     570.099
  O     -647.586    -897.340     570.194
  C     -648.968    -895.680     571.368
  O     -648.256    -896.130     572.539
  C     -648.951    -894.140     571.282
  N     -652.454    -890.620     572.323
  C     -651.395    -891.070     573.091
  N     -651.247    -890.490     574.314
  N     -650.572    -892.020     572.703
  C     -650.857    -892.520     571.486
  C     -651.834    -892.120     570.612
  C     -652.750    -891.080     571.061
  O     -653.698    -890.620     570.414
  N     -651.774    -892.800     569.427
  C     -650.819    -893.680     569.635
  N     -650.178    -893.510     570.818
  O     -645.994    -894.650     565.694
  O     -648.508    -894.390     565.126
  H     -647.400    -895.690     572.581
  H     -646.026    -894.840     564.728
  H     -653.051    -889.890     572.658
  H     -650.527    -894.460     568.922
  H     -648.729    -893.680     572.274
  H     -649.957    -896.100     571.409
  H     -651.824    -889.740     574.672
  H     -648.932    -896.060     569.235
  H     -650.474    -890.810     574.884
  H     -646.347    -895.150     570.649
  H     -646.104    -893.880     568.448
  H     -645.914    -895.620     568.322
  P     -648.417    -898.640     569.818
  C     -646.879    -899.530     567.931
  O     -647.392    -899.710     569.207
  O     -649.287    -898.180     568.544
  O     -649.292    -899.140     570.945
  H     -650.203    -898.510     568.650
  H     -645.885    -899.980     567.852
  H     -646.802    -898.450     567.685
  H     -647.538    -900.000     567.194
  H     -646.205    -890.884     565.915
  H     -646.626    -891.968     564.611
  H     -645.327    -892.379     565.705

 3  4  5  6  7  8  9  10  11  12  23  26  30  31 0
 6-311+G(2d,p)
 ****
 33  35  36  37  38 0
 6-311+G(2d,p)
 ****
 1  2  13  14  15  16  17  18  19  20  21  22  24  25 0
 3-21G
 ****
 27  28  29  32  34  39  40  41  42  43  44  45  46  47  48  49 0
 3-21G
 ****


