%nproc=1
%NoSave
%Mem=1900MB
#P OB98/GEN NMR

erre ene a

0 1
  C      545.795     -66.984    -151.200
  O      545.237     -68.121    -150.570
  H      546.079     -66.261    -150.429
  H      545.070     -66.516    -151.869
  H      546.690     -67.268    -151.759
  P      544.591     -69.269    -151.480
  C      545.160     -71.721    -150.926
  O      544.435     -70.560    -150.539
  C      546.562     -71.713    -150.316
  O      546.434     -71.684    -148.868
  C      547.405     -72.933    -150.697
  O      548.757     -72.513    -150.866
  C      547.273     -73.822    -149.477
  O      548.352     -74.732    -149.372
  C      547.172     -72.801    -148.337
  N      546.522     -73.381    -147.165
  C      547.318     -74.187    -146.342
  O      548.508     -74.370    -146.615
  N      546.740     -74.827    -145.274
  C      545.467     -74.711    -145.072
  N      544.945     -75.399    -144.019
  C      544.581     -73.894    -145.927
  C      545.166     -73.264    -146.941
  O      545.260     -69.528    -152.787
  O      543.076     -68.785    -151.681
  H      548.335     -75.158    -148.489
  H      543.007     -68.239    -152.486
  H      543.519     -73.840    -145.720
  H      544.597     -72.646    -147.631
  H      548.168     -72.442    -148.049
  H      546.346     -74.408    -149.543
  H      547.048     -73.433    -151.606
  H      547.066     -70.782    -150.606
  H      545.588     -75.968    -143.475
  H      545.236     -71.718    -152.018
  H      543.968     -75.425    -143.788
  H      544.617     -72.618    -150.612
  P      549.392     -72.370    -152.334
  C      551.380     -70.983    -151.517
  O      550.981     -72.166    -152.203
  O      548.710     -71.376    -153.215
  O      549.263     -73.846    -152.953
  H      549.162     -73.782    -153.921
  H      552.448     -70.935    -151.480
  H      550.989     -70.999    -150.521
  H      551.002     -70.126    -152.034

 6  7  8  9  10  11  12  13  14  15  16  26  30  31  32  33  35 0
 6-311+G(2d,p)
 ****
 37  38 0
 6-311+G(2d,p)
 ****
 1  2  3  4  5  17  18  19  20  21  22  23  24  25 0
 3-21G
 ****
 27  28  29  34  36  39  40  41  42  43  44  45  46 0
 3-21G
 ****


