%nproc=1
%NoSave
%Mem=1900MB
#P OB98/GEN NMR

erre ene a

0 1
  C       33.908      65.362     506.210
  O       33.793      65.032     507.578
  H       33.297      66.246     506.010
  H       33.538      64.533     505.600
  H       34.943      65.582     505.939
  P       34.849      64.012     508.214
  C       35.023      61.453     508.519
  O       34.272      62.530     507.981
  C       35.230      60.349     507.483
  O       33.945      59.898     506.987
  C       36.002      60.886     506.264
  O       36.762      59.873     505.619
  C       34.894      61.342     505.337
  O       35.304      61.433     503.974
  C       33.825      60.282     505.602
  N       29.929      60.348     502.323
  C       31.207      59.857     502.144
  N       31.499      59.335     500.929
  N       32.129      59.891     503.074
  C       31.723      60.505     504.217
  C       30.488      61.054     504.492
  C       29.467      60.970     503.470
  O       28.321      61.394     503.564
  N       30.462      61.608     505.754
  C       31.676      61.404     506.231
  N       32.476      60.728     505.334
  O       34.661      64.208     509.796
  O       36.277      64.208     507.803
  H       34.505      61.582     503.437
  H       35.474      63.953     510.268
  H       29.253      60.277     501.576
  H       32.020      61.717     507.202
  H       34.008      59.392     504.983
  H       34.575      62.350     505.650
  H       30.882      59.445     500.140
  H       36.665      61.711     506.536
  H       32.491      59.246     500.692
  H       35.717      59.480     507.934
  H       34.467      61.064     509.374
  H       35.987      61.817     508.891
  P       38.318      60.168     505.335
  C       39.638      61.212     503.319
  O       38.469      60.559     503.793
  O       39.009      58.731     505.448
  O       38.916      61.159     506.286
  H       39.493      58.653     506.280
  H       39.547      61.387     502.267
  H       40.492      60.595     503.506
  H       39.755      62.146     503.827

 6  7  8  9  10  11  12  13  14  15  26  29  33  34 0
 6-311+G(2d,p)
 ****
 36  38  39  40  41 0
 6-311+G(2d,p)
 ****
 1  2  3  4  5  16  17  18  19  20  21  22  23  24  25 0
 3-21G
 ****
 27  28  30  31  32  35  37  42  43  44  45  46  47 0
 3-21G
 ****
 48  49 0
 3-21G
 ****


