%nproc=1
%NoSave
%Mem=1900MB
#P OB98/GEN NMR

erre ene a

0 1
  C     -119.393     295.354     496.386
  O     -118.885     296.509     495.749
  H     -118.762     294.502     496.119
  H     -120.414     295.152     496.050
  H     -119.378     295.471     497.474
  P     -119.549     297.930     496.079
  C     -121.620     299.150     495.147
  O     -121.039     297.897     495.485
  C     -122.042     299.150     493.681
  O     -120.881     299.061     492.822
  C     -122.934     297.972     493.292
  O     -124.254     298.166     493.765
  C     -122.779     297.989     491.777
  O     -123.602     299.005     491.187
  C     -121.279     298.352     491.626
  N     -120.432     297.175     491.402
  C     -120.792     296.360     490.331
  O     -121.763     296.580     489.611
  N     -120.017     295.243     490.150
  C     -119.006     294.835     490.974
  O     -118.486     293.722     490.899
  C     -118.624     295.772     492.033
  C     -119.348     296.879     492.207
  O     -118.743     299.125     495.695
  O     -119.795     297.870     497.660
  H     -119.093     298.372     498.115
  H     -123.304     299.855     491.561
  H     -120.300     294.616     489.412
  H     -117.782     295.513     492.668
  H     -119.106     297.574     493.004
  H     -121.136     299.044     490.785
  H     -123.057     297.039     491.319
  H     -122.512     297.036     493.683
  H     -122.545     300.103     493.464
  H     -120.878     299.936     495.308
  H     -122.482     299.330     495.798
  P     -125.347     296.996     493.660
  C     -126.683     295.801     491.831
  O     -125.780     296.852     492.122
  O     -126.490     297.117     494.615
  O     -124.515     295.652     493.928
  H     -124.945     295.145     494.650
  H     -126.901     295.798     490.784
  H     -127.588     295.945     492.384
  H     -126.242     294.866     492.106

 6  7  8  9  10  11  12  13  14  15  16  27  31  32  33  34  35 0
 6-311+G(2d,p)
 ****
 36  37 0
 6-311+G(2d,p)
 ****
 1  2  3  4  5  17  18  19  20  21  22  23  24  25 0
 3-21G
 ****
 26  28  29  30  38  39  40  41  42  43  44  45 0
 3-21G
 ****


