%nproc=1
%NoSave
%Mem=1900MB
#P OB98/GEN NMR

erre ene a

0 1
  C      -52.115    -257.671     484.702
  O      -53.367    -256.982     484.844
  P      -54.620    -257.225     483.873
  C      -56.161    -258.347     485.630
  O      -55.435    -258.502     484.416
  C      -56.577    -259.707     486.192
  O      -55.409    -260.534     486.417
  C      -57.269    -259.666     487.547
  O      -58.595    -259.185     487.463
  C      -57.154    -261.126     487.986
  O      -58.212    -261.921     487.431
  C      -55.805    -261.545     487.374
  N      -54.770    -261.756     488.371
  C      -54.337    -263.072     488.559
  O      -54.877    -264.000     487.958
  N      -53.306    -263.305     489.440
  C      -52.827    -262.326     490.142
  N      -51.796    -262.614     490.984
  C      -53.351    -260.950     490.076
  C      -54.309    -260.739     489.177
  O      -54.265    -257.320     482.427
  O      -55.612    -256.000     484.147
  H      -56.160    -255.837     483.352
  H      -59.044    -261.440     487.590
  H      -52.951    -260.177     490.713
  H      -54.741    -259.750     489.051
  H      -55.929    -262.465     486.787
  H      -57.203    -261.235     489.073
  H      -56.685    -259.034     488.231
  H      -57.219    -260.201     485.450
  H      -51.458    -263.568     491.003
  H      -57.063    -257.759     485.421
  H      -51.338    -261.924     491.563
  H      -55.548    -257.791     486.347
  P      -58.845    -257.657     487.875
  C      -59.525    -256.903     485.483
  O      -58.624    -256.754     486.567
  O      -57.581    -257.301     488.796
  O      -60.128    -257.407     488.599
  H      -57.867    -256.736     489.537
  H      -59.561    -255.960     484.934
  H      -60.533    -257.150     485.827
  H      -59.164    -257.688     484.815
  H      -51.438    -257.342     485.463
  H      -51.699    -257.460     483.739
  H      -52.275    -258.725     484.798

 3  4  5  6  7  8  9  10  11  12  13  24  27  28  29  30  32 0
 6-311+G(2d,p)
 ****
 34  35 0
 6-311+G(2d,p)
 ****
 1  2  14  15  16  17  18  19  20  21  22  23  25  26 0
 3-21G
 ****
 31  33  36  37  38  39  40  41  42  43  44  45  46 0
 3-21G
 ****


