%nproc=1
%NoSave
%Mem=1900MB
#P OB98/GEN NMR

erre ene a

0 1
  C      -10.892     -35.279     130.026
  O      -11.286     -36.453     130.711
  H      -11.785     -34.775     129.648
  H      -10.250     -35.541     129.181
  H      -10.362     -34.602     130.701
  P      -10.145     -37.211     131.539
  C       -9.663     -39.213     129.914
  O      -10.222     -38.769     131.143
  C       -9.658     -40.737     129.862
  O       -9.077     -41.206     128.629
  C       -8.806     -41.396     130.933
  O       -9.389     -41.319     132.215
  C       -8.718     -42.816     130.391
  O       -9.858     -43.597     130.765
  C       -8.692     -42.581     128.861
  N       -7.396     -42.898     128.289
  C       -6.970     -44.221     128.468
  O       -7.689     -45.027     129.058
  N       -5.729     -44.578     128.008
  C       -4.970     -43.691     127.446
  N       -3.739     -44.103     127.041
  C       -5.380     -42.287     127.240
  C       -6.595     -41.961     127.682
  O      -10.724     -37.185     133.029
  O       -8.780     -36.626     131.404
  H       -9.788     -44.440     130.270
  H      -11.648     -37.477     133.096
  H       -4.716     -41.589     126.753
  H       -6.977     -40.953     127.572
  H       -9.447     -43.205     128.364
  H       -7.836     -43.338     130.770
  H       -7.795     -40.966     130.929
  H      -10.699     -41.084     129.911
  H       -3.477     -45.059     127.252
  H       -8.647     -38.825     129.791
  H       -3.035     -43.485     126.665
  H      -10.275     -38.804     129.104
  P       -8.505     -41.013     133.515
  C       -8.463     -43.576     133.769
  O       -8.574     -42.327     134.441
  O       -8.833     -39.744     134.226
  O       -7.005     -41.079     132.957
  H       -6.752     -41.932     132.563
  H       -8.522     -44.371     134.482
  H       -7.524     -43.624     133.258
  H       -9.259     -43.672     133.061

 6  7  8  9  10  11  12  13  14  15  16  26  30  31  32  33  35 0
 6-311+G(2d,p)
 ****
 37  38 0
 6-311+G(2d,p)
 ****
 1  2  3  4  5  17  18  19  20  21  22  23  24  25 0
 3-21G
 ****
 27  28  29  34  36  39  40  41  42  43  44  45  46 0
 3-21G
 ****


