%nproc=1
%NoSave
%Mem=1900MB
#P OB98/GEN NMR

erre ene a

0 1
  C      106.843     208.834    -201.521
  O      106.609     207.997    -202.639
  P      107.385     206.609    -202.794
  C      108.955     207.596    -204.560
  O      108.016     206.569    -204.273
  C      109.372     207.575    -206.031
  O      110.190     206.396    -206.274
  C      108.203     207.532    -207.028
  O      108.620     208.273    -208.180
  C      108.118     206.053    -207.379
  O      107.445     205.815    -208.607
  C      109.598     205.688    -207.380
  N      111.799     201.540    -209.404
  C      111.723     202.818    -209.835
  N      111.094     203.862    -209.252
  C      110.510     203.479    -208.105
  C      110.475     202.210    -207.552
  C      111.180     201.207    -208.247
  N      111.300     199.909    -207.805
  N      109.723     202.204    -206.395
  C      109.314     203.449    -206.250
  N      109.816     204.268    -207.230
  O      106.599     205.395    -202.422
  O      108.671     206.772    -201.859
  H      107.786     206.442    -209.274
  H      108.557     206.242    -201.045
  H      112.233     203.034    -210.769
  H      108.653     203.805    -205.472
  H      110.103     206.011    -208.298
  H      107.577     205.521    -206.586
  H      107.266     207.926    -206.630
  H      110.004     208.447    -206.218
  H      109.836     207.431    -203.934
  H      111.932     199.309    -208.306
  H      111.082     199.701    -206.829
  H      108.530     208.573    -204.302
  P      107.896     209.656    -208.542
  C      108.038     209.114    -211.044
  O      108.366     210.040    -210.023
  O      108.032     210.735    -207.524
  O      106.360     209.230    -208.751
  H      105.793     210.020    -208.704
  H      108.765     208.290    -211.032
  H      108.083     209.618    -212.012
  H      107.034     208.707    -210.897
  H      106.234     209.710    -201.598
  H      107.874     209.118    -201.498
  H      106.598     208.306    -200.623

 3  4  5  6  7  8  9  10  11  12  22  25  29  30  31  32 0
 6-311+G(2d,p)
 ****
 33  36  37 0
 6-311+G(2d,p)
 ****
 1  2  13  14  15  16  17  18  19  20  21  23  24  26 0
 3-21G
 ****
 27  28  34  35  38  39  40  41  42  43  44  45  46  47  48 0
 3-21G
 ****


