%nproc=1
%NoSave
%Mem=1900MB
#P OB98/GEN NMR

erre ene a

0 1
  C      651.987     420.727     124.207
  O      651.474     420.194     122.996
  P      651.222     418.618     122.923
  C      652.666     418.294     120.787
  O      651.381     418.191     121.380
  C      652.653     417.739     119.357
  O      652.412     416.303     119.417
  C      651.583     418.350     118.442
  O      652.145     418.402     117.132
  C      650.473     417.314     118.520
  O      649.515     417.417     117.487
  C      651.299     416.035     118.549
  N      648.249     412.156     117.157
  C      648.908     413.094     116.436
  N      649.705     414.095     116.873
  C      649.799     414.058     118.218
  C      649.177     413.191     119.082
  C      648.363     412.190     118.508
  N      647.695     411.249     119.245
  N      649.504     413.482     120.401
  C      650.305     414.519     120.310
  N      650.537     414.899     119.014
  O      649.651     418.479     123.176
  O      652.028     417.799     123.893
  H      649.162     418.319     117.426
  H      649.453     417.703     123.730
  H      648.759     413.037     115.353
  H      650.733     415.034     121.157
  H      651.693     415.777     117.556
  H      649.935     417.446     119.469
  H      651.279     419.361     118.746
  H      653.657     417.877     118.923
  H      653.385     417.712     121.380
  H      646.979     410.716     118.764
  H      647.629     411.404     120.254
  H      652.998     419.335     120.792
  P      651.612     419.501     116.089
  C      651.467     417.791     114.181
  O      652.105     418.956     114.663
  O      652.642     420.699     116.350
  O      650.175     419.870     116.229
  H      653.570     420.397     116.310
  H      651.816     417.579     113.162
  H      650.373     417.936     114.148
  H      651.712     416.933     114.814
  H      652.103     421.786     124.109
  H      652.937     420.282     124.419
  H      651.308     420.515     125.006

 3  4  5  6  7  8  9  10  11  12  22  25  29  30  31  32 0
 6-311+G(2d,p)
 ****
 33  36  37 0
 6-311+G(2d,p)
 ****
 1  2  13  14  15  16  17  18  19  20  21  23  24  26 0
 3-21G
 ****
 27  28  34  35  38  39  40  41  42  43  44  45  46  47  48 0
 3-21G
 ****


