%nproc=1
%NoSave
%Mem=1900MB
#P OB98/GEN NMR

erre ene a

0 1
  C        1.912      98.947     207.121
  O        0.556      99.349     207.294
  P       -0.696      98.645     206.599
  C       -1.884      98.285     208.908
  O       -1.419      97.725     207.689
  C       -3.222      97.688     209.377
  O       -3.029      96.295     209.738
  C       -3.716      98.399     210.636
  O       -4.430      99.616     210.531
  C       -4.442      97.321     211.428
  O       -5.846      97.304     211.172
  C       -3.794      96.025     210.932
  N       -3.500      93.812     215.535
  C       -4.586      94.399     214.917
  N       -5.731      94.450     215.630
  N       -4.547      94.906     213.714
  C       -3.321      94.868     213.147
  C       -2.166      94.331     213.667
  C       -2.232      93.719     214.978
  O       -1.304      93.176     215.566
  N       -1.106      94.495     212.812
  C       -1.613      95.150     211.789
  N       -2.959      95.394     211.941
  O       -0.433      98.033     205.265
  O       -1.733      99.862     206.381
  H       -6.238      96.581     211.693
  H       -2.229      99.662     205.561
  H       -3.592      93.415     216.454
  H       -1.056      95.465     210.914
  H       -4.553      95.285     210.653
  H       -4.325      97.490     212.505
  H       -5.794      94.187     216.601
  H       -2.828      98.649     211.231
  H       -6.462      95.067     215.271
  H       -3.953      97.687     208.564
  H       -1.982      99.362     208.745
  H       -1.132      98.157     209.688
  P       -3.839     101.085     210.767
  C       -3.060     101.733     208.414
  O       -2.662     101.319     209.709
  O       -3.046     100.965     212.152
  O       -4.859     102.174     210.831
  H       -2.867     101.850     212.519
  H       -2.236     101.561     207.717
  H       -3.299     102.799     208.427
  H       -3.935     101.167     208.075
  H        2.549      99.585     207.697
  H        2.176      99.019     206.087
  H        2.029      97.935     207.449

 3  4  5  6  7  8  9  10  11  12  23  26  30  31 0
 6-311+G(2d,p)
 ****
 33  35  36  37  38 0
 6-311+G(2d,p)
 ****
 1  2  13  14  15  16  17  18  19  20  21  22  24  25 0
 3-21G
 ****
 27  28  29  32  34  39  40  41  42  43  44  45  46  47  48  49 0
 3-21G
 ****


