%nproc=1
%NoSave
%Mem=1900MB
#P OB98/GEN NMR

erre ene a

0 1
  C     -186.847     210.911      82.680
  O     -185.788     211.328      81.843
  H     -186.433     210.598      83.641
  H     -187.382     210.067      82.238
  H     -187.539     211.740      82.853
  P     -186.106     211.689      80.315
  C     -184.357     209.993      79.481
  O     -184.776     211.351      79.482
  C     -182.879     209.883      79.105
  O     -182.737     210.190      77.692
  C     -181.972     210.835      79.894
  O     -180.739     210.165      80.159
  C     -181.761     211.974      78.918
  O     -180.572     212.688      79.202
  C     -181.777     211.256      77.566
  N     -182.119     212.175      76.481
  C     -181.048     212.733      75.776
  O     -179.889     212.434      76.066
  N     -181.306     213.665      74.805
  C     -182.524     214.052      74.592
  N     -182.707     215.008      73.642
  C     -183.683     213.512      75.330
  C     -183.412     212.585      76.249
  O     -186.671     213.047      80.064
  O     -187.122     210.539      79.860
  H     -180.456     213.402      78.540
  H     -188.042     210.823      80.019
  H     -184.679     213.871      75.119
  H     -184.198     212.140      76.849
  H     -180.800     210.805      77.350
  H     -182.600     212.677      78.984
  H     -182.423     211.177      80.831
  H     -182.562     208.841      79.236
  H     -181.881     215.367      73.180
  H     -184.964     209.454      78.746
  H     -183.601     215.417      73.418
  H     -184.526     209.552      80.468
  P     -180.579     209.230      81.454
  C     -179.003     210.424      83.077
  O     -179.106     209.429      82.066
  O     -180.979     207.805      81.249
  O     -181.526     209.925      82.546
  H     -181.873     209.243      83.153
  H     -177.991     210.481      83.419
  H     -179.642     210.168      83.896
  H     -179.298     211.371      82.677

 6  7  8  9  10  11  12  13  14  15  16  26  30  31  32  33  35 0
 6-311+G(2d,p)
 ****
 37  38 0
 6-311+G(2d,p)
 ****
 1  2  3  4  5  17  18  19  20  21  22  23  24  25 0
 3-21G
 ****
 27  28  29  34  36  39  40  41  42  43  44  45  46 0
 3-21G
 ****


