%nproc=1
%NoSave
%Mem=1900MB
#P OB98/GEN NMR

erre ene a

0 1
  C      747.996    -231.660     428.714
  O      746.795    -231.642     429.494
  P      746.244    -233.052     430.028
  C      746.582    -232.473     432.561
  O      746.951    -233.278     431.450
  C      747.647    -231.404     432.809
  O      747.753    -230.513     431.670
  C      747.357    -230.503     433.995
  O      747.597    -231.174     435.228
  C      748.297    -229.335     433.712
  O      749.633    -229.658     434.126
  C      748.226    -229.242     432.176
  N      747.391    -228.139     431.706
  C      747.922    -226.864     431.882
  O      749.008    -226.651     432.420
  N      747.142    -225.833     431.433
  C      745.908    -225.946     430.870
  O      745.260    -224.981     430.478
  C      745.381    -227.312     430.754
  C      746.132    -228.336     431.171
  O      746.992    -234.070     429.047
  O      744.754    -233.140     430.019
  H      747.886    -233.773     428.804
  H      750.151    -228.829     434.052
  H      747.510    -224.900     431.541
  H      744.390    -227.436     430.333
  H      745.762    -229.352     431.098
  H      749.229    -229.103     431.759
  H      748.001    -228.424     434.241
  H      746.316    -230.160     433.961
  H      748.612    -231.912     432.941
  H      746.484    -233.092     433.457
  H      745.608    -232.019     432.360
  P      746.407    -232.098     435.794
  C      747.907    -234.233     435.946
  O      746.777    -233.604     435.392
  O      745.212    -231.708     434.801
  O      746.112    -231.867     437.240
  H      745.491    -231.668     433.875
  H      747.796    -235.315     435.837
  H      748.026    -233.994     437.005
  H      748.807    -233.914     435.400
  H      748.249    -230.661     428.425
  H      747.844    -232.257     427.839
  H      748.792    -232.076     429.295

 3  4  5  6  7  8  9  10  11  12  13  24  28  29  30  31  32 0
 6-311+G(2d,p)
 ****
 33  34 0
 6-311+G(2d,p)
 ****
 1  2  14  15  16  17  18  19  20  21  22  23  25  26  27 0
 3-21G
 ****
 35  36  37  38  39  40  41  42  43  44  45 0
 3-21G
 ****


