%nproc=1
%NoSave
%Mem=1900MB
#P OB98/GEN NMR

erre ene a

0 1
  C     -614.420    1037.933    -184.815
  O     -615.834    1038.127    -184.765
  P     -616.378    1039.348    -183.851
  C     -616.268    1038.013    -181.618
  O     -615.792    1039.132    -182.380
  C     -615.564    1037.950    -180.269
  O     -615.756    1039.164    -179.505
  C     -616.062    1036.824    -179.352
  O     -615.516    1035.566    -179.698
  C     -615.556    1037.299    -178.010
  O     -614.176    1036.911    -177.838
  C     -615.667    1038.834    -178.117
  N     -617.811    1039.852    -173.638
  C     -616.571    1039.303    -173.918
  N     -615.799    1039.001    -172.861
  N     -616.147    1039.071    -175.128
  C     -617.034    1039.445    -176.086
  C     -618.284    1039.993    -175.932
  C     -618.752    1040.230    -174.590
  O     -619.854    1040.689    -174.279
  N     -618.869    1040.253    -177.147
  C     -617.987    1039.867    -178.021
  N     -616.838    1039.371    -177.444
  O     -617.925    1039.027    -183.691
  O     -616.136    1040.698    -184.456
  H     -613.683    1037.310    -178.575
  H     -618.434    1039.853    -183.556
  H     -618.096    1040.021    -172.673
  H     -618.092    1039.941    -179.102
  H     -614.785    1039.334    -177.715
  H     -616.103    1036.865    -177.164
  H     -616.019    1039.240    -171.893
  H     -617.172    1036.799    -179.348
  H     -614.863    1038.641    -173.046
  H     -614.486    1037.810    -180.438
  H     -616.078    1037.079    -182.177
  H     -617.352    1038.093    -181.514
  P     -616.472    1034.536    -180.480
  C     -616.805    1032.692    -178.651
  O     -617.345    1033.823    -179.329
  O     -615.447    1033.390    -180.916
  O     -617.213    1035.105    -181.621
  H     -615.783    1032.935    -181.739
  H     -615.759    1032.837    -178.410
  H     -616.947    1031.810    -179.286
  H     -617.376    1032.549    -177.740
  H     -614.196    1037.100    -185.449
  H     -614.051    1037.740    -183.829
  H     -613.953    1038.813    -185.204

 3  4  5  6  7  8  9  10  11  12  23  26  30  31  33  0
 6-311+G(2d,p)
 ****
 35  36  37  38 0
 6-311+G(2d,p)
 ****
 1  2  13  14  15  16  17  18  19  20  21  22  24  25  27  28  29 0
 3-21G
 ****
 32  34  39  40  41  42  43  44  45  46  47  48  49 0
 3-21G
 ****


