%nproc=1
%NoSave
%Mem=1900MB
#P OB98/GEN NMR

erre ene a

0 1
  C     -187.342      17.894    -115.652
  O     -188.130      18.467    -114.625
  P     -187.464      19.614    -113.726
  C     -186.752      17.921    -111.876
  O     -186.352      18.916    -112.809
  C     -186.047      18.156    -110.538
  O     -184.614      18.071    -110.702
  C     -186.309      19.534    -109.946
  O     -187.578      19.597    -109.317
  C     -185.143      19.680    -108.976
  O     -185.427      19.026    -107.728
  C     -184.012      18.950    -109.729
  N     -183.063      19.872    -110.345
  C     -181.752      19.794    -109.882
  O     -181.401      19.018    -108.992
  N     -180.865      20.667    -110.449
  C     -181.160      21.628    -111.371
  O     -180.331      22.419    -111.802
  C     -182.568      21.682    -111.802
  C     -183.441      20.819    -111.273
  O     -188.618      20.010    -112.690
  O     -186.978      20.798    -114.493
  H     -185.518      18.073    -107.928
  H     -188.580      20.967    -112.500
  H     -179.905      20.609    -110.146
  H     -182.840      22.433    -112.535
  H     -184.483      20.853    -111.567
  H     -183.459      18.300    -109.039
  H     -184.924      20.727    -108.748
  H     -186.222      20.301    -110.727
  H     -186.359      17.371    -109.839
  H     -186.488      16.933    -112.263
  H     -187.838      17.964    -111.750
  P     -188.427      20.945    -109.521
  C     -187.179      21.837    -107.405
  O     -187.609      22.073    -108.729
  O     -189.704      20.633    -108.608
  O     -188.734      21.228    -110.952
  H     -189.480      20.083    -107.839
  H     -186.894      20.793    -107.256
  H     -187.983      22.098    -106.712
  H     -186.314      22.473    -107.198
  H     -187.913      17.148    -116.165
  H     -186.470      17.444    -115.224
  H     -187.047      18.656    -116.343

 3  4  5  6  7  8  9  10  11  12  13  23  28  29  30  31  32 0
 6-311+G(2d,p)
 ****
 33  34 0
 6-311+G(2d,p)
 ****
 1  2  14  15  16  17  18  19  20  21  22  24  25  26 0
 3-21G
 ****
 27  35  36  37  38  39  40  41  42  43  44  45 0
 3-21G
 ****


