%nproc=1
%NoSave
%Mem=1900MB
#P OB98/GEN NMR

erre ene a

0 1
  C       82.771     -41.776     192.225
  O       84.004     -41.748     192.912
  H       82.960     -42.040     191.180
  H       82.298     -40.791     192.254
  H       82.101     -42.523     192.658
  P       84.001     -41.515     194.498
  C       83.185     -42.874     196.529
  O       83.059     -42.647     195.131
  C       81.821     -43.208     197.128
  O       80.995     -42.023     197.187
  C       81.026     -44.227     196.318
  O       81.533     -45.532     196.516
  C       79.628     -43.985     196.864
  O       79.449     -44.630     198.134
  C       79.622     -42.447     197.031
  N       78.981     -41.756     195.911
  C       77.651     -41.392     196.096
  O       77.024     -41.628     197.126
  N       77.046     -40.782     195.027
  C       77.605     -40.592     193.796
  O       76.963     -40.246     192.810
  C       79.033     -40.927     193.685
  C       79.641     -41.499     194.727
  O       83.707     -40.123     194.948
  O       85.467     -41.979     194.948
  H       86.027     -41.190     195.084
  H       78.620     -44.276     198.511
  H       76.066     -40.559     195.134
  H       79.530     -40.730     192.742
  H       80.686     -41.781     194.656
  H       79.096     -42.164     197.953
  H       78.849     -44.367     196.200
  H       81.042     -43.959     195.255
  H       81.975     -43.564     198.156
  H       83.573     -41.962     196.997
  H       83.895     -43.690     196.700
  P       81.168     -46.723     195.511
  C       81.979     -47.385     193.172
  O       81.669     -46.308     194.046
  O       79.750     -47.189     195.570
  O       82.175     -47.903     195.915
  H       81.660     -48.716     196.084
  H       82.301     -46.997     192.228
  H       81.109     -47.991     193.030
  H       82.761     -47.977     193.599

 6  7  8  9  10  11  12  13  14  15  16  27  31  32  33  34  35 0
 6-311+G(2d,p)
 ****
 36  37 0
 6-311+G(2d,p)
 ****
 1  2  3  4  5  17  18  19  20  21  22  23  24  25 0
 3-21G
 ****
 26  28  29  30  38  39  40  41  42  43  44  45 0
 3-21G
 ****


