%nproc=1
%NoSave
%Mem=1900MB
#P OB98/GEN NMR

erre ene a

0 1
  C      -61.842     216.001     -53.318
  O      -61.815     216.381     -54.675
  P      -63.133     216.555     -55.563
  C      -63.190     214.131     -56.503
  O      -63.836     215.114     -55.703
  C      -64.175     213.161     -57.174
  O      -64.791     212.330     -56.168
  C      -65.313     213.943     -57.840
  O      -65.140     214.485     -59.135
  C      -66.549     213.065     -57.669
  O      -66.841     212.296     -58.837
  C      -66.179     212.151     -56.498
  N      -68.836     209.973     -52.770
  C      -67.922     209.401     -53.636
  N      -67.859     208.053     -53.620
  N      -67.170     210.095     -54.455
  C      -67.417     211.425     -54.420
  C      -68.284     212.105     -53.596
  C      -69.083     211.337     -52.675
  O      -69.966     211.799     -51.952
  N      -68.324     213.442     -53.896
  C      -67.514     213.571     -54.924
  N      -66.971     212.364     -55.301
  O      -63.016     217.414     -56.781
  O      -64.114     217.311     -54.530
  H      -65.992     211.999     -59.218
  H      -64.673     217.918     -55.050
  H      -69.450     209.384     -52.224
  H      -67.311     214.495     -55.450
  H      -66.300     211.099     -56.783
  H      -67.434     213.683     -57.479
  H      -68.529     207.487     -53.119
  H      -65.501     214.822     -57.210
  H      -67.330     207.596     -54.359
  H      -63.660     212.477     -57.850
  H      -62.493     213.588     -55.855
  H      -62.594     214.623     -57.275
  P      -65.985     215.677     -59.786
  C      -67.226     214.253     -61.516
  O      -67.352     215.073     -60.365
  O      -65.175     216.054     -61.117
  O      -66.150     216.880     -58.915
  H      -65.391     216.968     -61.386
  H      -68.207     214.153     -61.988
  H      -66.873     213.260     -61.217
  H      -66.525     214.690     -62.229
  H      -60.842     215.952     -52.941
  H      -62.305     215.041     -53.226
  H      -62.399     216.722     -52.757

 3  4  5  6  7  8  9  10  11  12  23  26  30  31 0
 6-311+G(2d,p)
 ****
 33  35  36  37  38 0
 6-311+G(2d,p)
 ****
 1  2  13  14  15  16  17  18  19  20  21  22  24  25 0
 3-21G
 ****
 27  28  29  32  34  39  40  41  42  43  44  45  46  47  48  49 0
 3-21G
 ****


