%nproc=1
%NoSave
%Mem=1900MB
#P OB98/GEN NMR

erre ene a

0 1
  C      -85.386     138.690     132.552
  O      -86.551     139.244     131.974
  H      -84.619     139.467     132.611
  H      -85.010     137.870     131.933
  H      -85.601     138.328     133.560
  P      -87.788     138.251     131.741
  C      -86.849     136.979     129.679
  O      -87.808     137.903     130.174
  C      -87.290     136.468     128.311
  O      -86.248     135.649     127.733
  C      -88.529     135.584     128.348
  O      -89.723     136.336     128.472
  C      -88.413     134.873     127.008
  O      -88.958     135.668     125.942
  C      -86.886     134.703     126.852
  N      -86.457     133.333     127.111
  C      -87.086     132.347     126.356
  O      -87.955     132.594     125.517
  N      -86.711     131.058     126.622
  C      -85.819     130.666     127.575
  O      -85.582     129.487     127.815
  C      -85.172     131.751     128.334
  C      -85.522     133.015     128.079
  O      -89.060     139.203     131.936
  O      -87.826     137.064     132.645
  H      -89.458     139.051     132.813
  H      -88.944     135.103     125.146
  H      -87.166     130.331     126.091
  H      -84.452     131.473     129.094
  H      -85.074     133.830     128.639
  H      -86.576     134.965     125.830
  H      -88.960     133.929     127.006
  H      -88.442     134.840     129.151
  H      -87.452     137.333     127.652
  H      -86.769     136.130     130.368
  H      -85.874     137.474     129.615
  P      -90.673     136.061     129.734
  C      -91.830     134.144     128.359
  O      -91.966     135.293     129.178
  O      -91.201     137.539     130.048
  O      -89.983     135.385     130.871
  H      -91.339     138.071     129.245
  H      -92.800     133.779     128.093
  H      -91.298     133.385     128.894
  H      -91.289     134.400     127.472

 6  7  8  9  10  11  12  13  14  15  16  27  31  32  33  34  35 0
 6-311+G(2d,p)
 ****
 36  37 0
 6-311+G(2d,p)
 ****
 1  2  3  4  5  17  18  19  20  21  22  23  24  25 0
 3-21G
 ****
 26  28  29  30  38  39  40  41  42  43  44  45 0
 3-21G
 ****


