%nproc=1
%NoSave
%Mem=1900MB
#P OB98/GEN NMR

erre ene a

0 1
  C      451.170    -369.304      69.349
  O      450.656    -370.571      69.009
  H      450.552    -368.538      68.873
  H      452.193    -369.212      68.974
  H      451.160    -369.143      70.430
  P      451.063    -371.831      69.908
  C      449.472    -373.589      68.885
  O      450.819    -373.163      69.042
  C      449.331    -374.634      67.780
  O      449.686    -374.050      66.508
  C      450.261    -375.834      67.985
  O      449.723    -376.859      68.804
  C      450.465    -376.325      66.553
  O      449.446    -377.259      66.167
  C      450.360    -375.046      65.721
  N      454.278    -375.506      62.465
  C      453.217    -376.371      62.670
  N      453.228    -377.510      61.950
  N      452.253    -376.131      63.528
  C      452.431    -375.001      64.245
  C      453.453    -374.079      64.141
  C      454.472    -374.313      63.144
  O      455.420    -373.572      62.909
  N      453.320    -373.071      65.071
  C      452.274    -373.436      65.787
  N      451.652    -374.556      65.274
  O      449.887    -371.912      70.997
  O      452.401    -371.741      70.580
  H      449.421    -377.974      66.837
  H      450.239    -372.267      71.834
  H      454.971    -375.726      61.773
  H      451.891    -372.903      66.657
  H      449.752    -375.200      64.819
  H      451.424    -376.847      66.453
  H      453.988    -377.783      61.342
  H      451.229    -375.512      68.378
  H      452.574    -378.253      62.211
  H      448.284    -374.947      67.705
  H      448.894    -372.696      68.636
  H      449.083    -373.981      69.830
  P      450.521    -377.406      70.078
  C      448.311    -377.865      71.417
  O      449.546    -378.338      70.924
  O      450.669    -376.096      70.989
  O      451.843    -378.036      69.785
  H      451.553    -375.696      70.877
  H      447.818    -378.648      71.954
  H      447.697    -377.552      70.599
  H      448.482    -377.036      72.072

 6  7  8  9  10  11  12  13  14  15  26  29  33  34 0
 6-311+G(2d,p)
 ****
 36  38  39  40  41 0
 6-311+G(2d,p)
 ****
 1  2  3  4  5  16  17  18  19  20  21  22  23  24  25 0
 3-21G
 ****
 27  28  30  31  32  35  37  42  43  44  45  46  47 0
 3-21G
 ****
 48  49 0
 3-21G
 ****


