%nproc=1
%NoSave
%Mem=1900MB
#P OB98/GEN NMR

erre ene a

0 1
  C     -895.286    -606.862     803.037
  O     -895.147    -605.591     803.631
  H     -894.638    -606.908     802.155
  H     -896.319    -607.021     802.719
  H     -894.984    -607.650     803.730
  P     -895.862    -605.310     805.039
  C     -893.784    -605.490     806.549
  O     -894.770    -604.632     805.995
  C     -892.762    -604.669     807.332
  O     -891.832    -604.031     806.419
  C     -893.378    -603.539     808.151
  O     -894.013    -604.030     809.314
  C     -892.153    -602.666     808.388
  O     -891.378    -603.152     809.497
  C     -891.377    -602.819     807.063
  N     -891.557    -601.655     806.190
  C     -890.947    -600.478     806.606
  O     -890.288    -600.375     807.633
  N     -891.182    -599.377     805.815
  C     -892.057    -599.327     804.761
  O     -892.416    -598.280     804.242
  C     -892.613    -600.617     804.332
  C     -892.354    -601.707     805.064
  O     -896.592    -606.471     805.633
  O     -896.862    -604.098     804.717
  H     -897.766    -604.445     804.625
  H     -890.587    -602.587     809.538
  H     -890.785    -598.510     806.131
  H     -893.252    -600.629     803.464
  H     -892.786    -602.666     804.786
  H     -890.307    -602.946     807.261
  H     -892.439    -601.635     808.622
  H     -894.087    -602.987     807.529
  H     -892.188    -605.354     807.980
  H     -893.269    -606.019     805.729
  H     -894.264    -606.229     807.195
  P     -895.336    -603.310     809.869
  C     -896.898    -605.254     809.230
  O     -896.387    -604.447     810.290
  O     -895.889    -602.229     808.990
  O     -894.879    -602.708     811.288
  H     -895.144    -601.771     811.327
  H     -897.585    -605.972     809.628
  H     -896.090    -605.763     808.747
  H     -897.403    -604.633     808.520

 6  7  8  9  10  11  12  13  14  15  16  27  31  32  33  34  35 0
 6-311+G(2d,p)
 ****
 36  37 0
 6-311+G(2d,p)
 ****
 1  2  3  4  5  17  18  19  20  21  22  23  24  25 0
 3-21G
 ****
 26  28  29  30  38  39  40  41  42  43  44  45 0
 3-21G
 ****


