%nproc=1
%NoSave
%Mem=1900MB
#P OB98/GEN NMR

erre ene a

0 1
  C        2.239     102.807    -304.964
  O        3.343     102.087    -305.519
  P        3.394     100.510    -305.223
  C        4.617      98.927    -303.565
  O        4.460     100.255    -304.048
  C        5.815      98.857    -302.607
  O        7.065      99.061    -303.307
  C        5.787      99.924    -301.519
  O        4.833      99.607    -300.518
  C        7.238      99.896    -301.050
  O        7.459      98.786    -300.162
  C        7.996      99.658    -302.367
  N       11.471     103.377    -301.793
  C       11.172     102.291    -301.039
  N       10.233     101.349    -301.263
  C        9.565     101.602    -302.404
  C        9.757     102.663    -303.272
  C       10.763     103.587    -302.928
  N       11.054     104.700    -303.692
  N        8.880     102.588    -304.335
  C        8.152     101.516    -304.101
  N        8.534     100.877    -302.945
  O        4.118      99.914    -306.525
  O        2.050      99.894    -305.008
  H        7.059      99.016    -299.298
  H        3.471      99.425    -307.069
  H       11.771     102.164    -300.143
  H        7.344     101.159    -304.727
  H        8.833      98.960    -302.245
  H        7.538     100.807    -300.522
  H        5.553     100.905    -301.960
  H        5.827      97.858    -302.145
  H        4.767      98.234    -304.393
  H       11.737     105.352    -303.334
  H       10.479     104.915    -304.493
  H        3.695      98.621    -303.061
  P        3.282      99.847    -300.859
  C        1.982     101.836    -301.840
  O        3.241     101.367    -301.388
  O        2.649      99.968    -299.397
  O        2.666      98.832    -301.759
  H        3.180     100.545    -298.815
  H        2.090     102.887    -302.135
  H        1.241     101.766    -301.038
  H        1.655     101.255    -302.706
  H        2.318     103.841    -305.230
  H        2.250     102.711    -303.898
  H        1.324     102.408    -305.349

 3  4  5  6  7  8  9  10  11  12  22  25  29  30  31  32 0
 6-311+G(2d,p)
 ****
 33  36  37 0
 6-311+G(2d,p)
 ****
 1  2  13  14  15  16  17  18  19  20  21  23  24  26 0
 3-21G
 ****
 27  28  34  35  38  39  40  41  42  43  44  45  46  47  48 0
 3-21G
 ****


