%nproc=1
%NoSave
%Mem=1900MB
#P OB98/GEN NMR

erre ene a

0 1
  C     -462.794      27.229      19.453
  O     -463.896      26.548      20.061
  P     -463.614      25.088      20.668
  C     -465.601      24.786      22.348
  O     -465.052      24.504      21.070
  C     -466.369      23.572      22.868
  O     -467.469      23.248      21.985
  C     -465.535      22.302      22.959
  O     -464.646      22.344      24.065
  C     -466.628      21.246      23.054
  O     -467.127      21.162      24.399
  C     -467.714      21.826      22.124
  N     -467.770      21.165      20.827
  C     -468.446      19.948      20.797
  O     -468.947      19.431      21.794
  N     -468.505      19.330      19.577
  C     -467.944      19.785      18.420
  O     -468.039      19.191      17.354
  C     -467.203      21.051      18.525
  C     -467.149      21.675      19.704
  O     -462.930      25.461      22.063
  O     -462.791      24.230      19.766
  H     -463.298      26.267      22.463
  H     -467.225      22.082      24.715
  H     -469.001      18.452      19.530
  H     -466.722      21.429      17.630
  H     -466.605      22.608      19.803
  H     -468.701      21.735      22.595
  H     -466.274      20.249      22.774
  H     -464.965      22.163      22.032
  H     -466.780      23.826      23.853
  H     -466.282      25.639      22.282
  H     -464.790      25.063      23.029
  P     -463.091      22.576      23.737
  C     -462.850      24.477      25.517
  O     -462.439      23.208      25.056
  O     -463.169      23.807      22.716
  O     -462.404      21.366      23.193
  H     -463.788      24.497      23.000
  H     -462.573      24.575      26.570
  H     -463.932      24.605      25.426
  H     -462.341      25.257      24.944
  H     -463.119      28.183      19.093
  H     -462.422      26.647      18.635
  H     -462.017      27.366      20.176

 3  4  5  6  7  8  9  10  11  12  13  24  28  29  30  31  32 0
 6-311+G(2d,p)
 ****
 33  34 0
 6-311+G(2d,p)
 ****
 1  2  14  15  16  17  18  19  20  21  22  23  25  26  27 0
 3-21G
 ****
 35  36  37  38  39  40  41  42  43  44  45 0
 3-21G
 ****


