%nproc=1
%NoSave
%Mem=1900MB
#P OB98/GEN NMR

erre ene a

0 1
  C     -150.400    -231.065    -148.581
  O     -149.970    -230.324    -149.733
  P     -149.704    -231.180    -151.069
  C     -147.137    -231.263    -151.416
  O     -148.281    -231.909    -150.892
  C     -145.847    -231.755    -150.727
  O     -145.686    -233.193    -150.926
  C     -144.572    -231.066    -151.232
  O     -143.679    -230.944    -150.104
  C     -144.026    -232.090    -152.224
  O     -142.680    -231.869    -152.587
  C     -144.349    -233.374    -151.481
  N     -141.312    -237.124    -153.146
  C     -141.072    -236.065    -152.341
  N     -141.935    -235.099    -151.945
  C     -143.166    -235.323    -152.474
  C     -143.547    -236.356    -153.307
  C     -142.564    -237.290    -153.657
  N     -142.782    -238.365    -154.494
  N     -144.894    -236.227    -153.665
  C     -145.260    -235.088    -153.096
  N     -144.289    -234.553    -152.309
  O     -149.438    -230.070    -152.177
  O     -150.836    -232.085    -151.421
  H     -142.374    -232.576    -153.179
  H     -150.231    -229.920    -152.708
  H     -140.065    -235.976    -151.961
  H     -146.233    -234.618    -153.222
  H     -143.660    -233.536    -150.627
  H     -144.619    -232.035    -153.161
  H     -144.746    -230.073    -151.671
  H     -145.955    -231.582    -149.647
  H     -147.224    -230.178    -151.276
  H     -141.999    -238.972    -154.694
  H     -143.680    -238.508    -154.907
  H     -147.087    -231.432    -152.499
  P     -143.673    -229.570    -149.281
  C     -141.302    -229.045    -150.105
  O     -142.654    -228.616    -150.078
  O     -142.777    -229.996    -148.021
  O     -145.004    -229.004    -148.925
  H     -141.951    -230.435    -148.299
  H     -140.743    -228.348    -150.754
  H     -141.224    -230.049    -150.528
  H     -140.876    -229.007    -149.099
  H     -150.544    -230.395    -147.759
  H     -149.655    -231.789    -148.324
  H     -151.321    -231.563    -148.801

 3  4  5  6  7  8  9  10  11  12  22  25  29  30  31  32 0
 6-311+G(2d,p)
 ****
 33  36  37 0
 6-311+G(2d,p)
 ****
 1  2  13  14  15  16  17  18  19  20  21  23  24  26 0
 3-21G
 ****
 27  28  34  35  38  39  40  41  42  43  44  45  46  47  48 0
 3-21G
 ****


