%nproc=1
%NoSave
%Mem=1900MB
#P OB98/GEN NMR

erre ene a

0 1
  C      296.509    -896.651     -63.725
  O      295.422    -897.071     -64.512
  H      296.759    -897.451     -63.015
  H      296.251    -895.761     -63.153
  H      297.392    -896.471     -64.349
  P      294.958    -896.141     -65.741
  C      293.138    -895.011     -64.314
  O      293.422    -895.761     -65.496
  C      291.658    -894.641     -64.288
  O      291.317    -893.861     -65.437
  C      290.718    -895.841     -64.316
  O      290.675    -896.511     -63.063
  C      289.413    -895.191     -64.744
  O      288.759    -894.581     -63.624
  C      289.917    -894.111     -65.720
  N      289.735    -894.511     -67.124
  C      288.819    -893.761     -67.859
  O      288.193    -892.811     -67.411
  N      288.591    -894.191     -69.146
  C      289.078    -895.351     -69.711
  O      288.662    -895.821     -70.743
  C      290.082    -896.071     -68.881
  C      290.344    -895.611     -67.659
  O      295.264    -896.691     -67.102
  O      295.730    -894.761     -65.473
  H      296.509    -894.711     -66.062
  H      289.321    -893.821     -63.363
  H      287.905    -893.681     -69.670
  H      290.553    -896.941     -69.326
  H      291.062    -896.151     -67.029
  H      289.391    -893.161     -65.562
  H      288.733    -895.911     -65.190
  H      291.031    -896.541     -65.097
  H      291.472    -894.031     -63.385
  H      293.746    -894.091     -64.324
  H      293.418    -895.611     -63.428
  P      291.419    -897.911     -62.850
  C      289.946    -899.191     -64.539
  O      290.366    -899.081     -63.188
  O      292.143    -898.071     -61.570
  O      292.428    -898.001     -64.101
  H      293.318    -898.231     -63.769
  H      289.252    -900.000     -64.632
  H      290.796    -899.376     -65.163
  H      289.474    -898.279     -64.841

 6  7  8  9  10  11  12  13  14  15  16  27  31  32  33  34  35 0
 6-311+G(2d,p)
 ****
 36  37 0
 6-311+G(2d,p)
 ****
 1  2  3  4  5  17  18  19  20  21  22  23  24  25 0
 3-21G
 ****
 26  28  29  30  38  39  40  41  42  43  44  45 0
 3-21G
 ****


