%nproc=1
%NoSave
%Mem=1900MB
#P OB98/GEN NMR

erre ene a

0 1
  C      122.538    -182.481    -109.491
  O      123.371    -181.445    -109.006
  H      122.730    -182.616    -110.559
  H      121.488    -182.209    -109.353
  H      122.751    -183.419    -108.973
  P      123.412    -181.250    -107.416
  C      121.856    -179.143    -107.542
  O      122.088    -180.436    -107.000
  C      122.003    -178.084    -106.453
  O      122.025    -176.760    -107.025
  C      120.842    -178.031    -105.473
  O      120.834    -179.125    -104.580
  C      121.107    -176.696    -104.794
  O      122.052    -176.823    -103.724
  C      121.697    -175.850    -105.948
  N      120.786    -174.801    -106.368
  C      120.551    -173.796    -105.419
  O      121.118    -173.835    -104.326
  N      119.656    -172.804    -105.721
  C      119.027    -172.825    -106.858
  N      118.129    -171.828    -107.081
  C      119.245    -173.866    -107.883
  C      120.130    -174.816    -107.576
  O      124.577    -180.171    -107.231
  O      123.612    -182.506    -106.637
  H      122.188    -175.919    -103.367
  H      124.493    -179.399    -107.812
  H      118.708    -173.831    -108.819
  H      120.351    -175.617    -108.270
  H      122.642    -175.380    -105.637
  H      120.197    -176.274    -104.361
  H      119.890    -177.953    -106.018
  H      122.955    -178.257    -105.935
  H      117.970    -171.170    -106.327
  H      120.860    -179.088    -107.994
  H      117.528    -171.788    -107.891
  H      122.590    -178.979    -108.337
  P      119.690    -179.285    -103.472
  C      121.380    -180.006    -101.665
  O      120.393    -179.051    -102.043
  O      118.887    -180.537    -103.560
  O      118.830    -177.945    -103.640
  H      119.327    -177.118    -103.503
  H      121.775    -179.750    -100.704
  H      122.170    -180.007    -102.387
  H      120.936    -180.979    -101.620

 6  7  8  9  10  11  12  13  14  15  16  26  30  31  32  33  35 0
 6-311+G(2d,p)
 ****
 37  38 0
 6-311+G(2d,p)
 ****
 1  2  3  4  5  17  18  19  20  21  22  23  24  25 0
 3-21G
 ****
 27  28  29  34  36  39  40  41  42  43  44  45  46 0
 3-21G
 ****


