%nproc=1
%NoSave
%Mem=1900MB
#P OB98/GEN NMR

erre ene a

0 1
  C     -124.063      38.100     144.088
  O     -124.709      37.270     143.140
  H     -124.747      38.905     144.376
  H     -123.162      38.552     143.662
  H     -123.799      37.523     144.976
  P     -123.858      36.108     142.441
  C     -124.185      37.627     140.369
  O     -123.321      36.738     141.066
  C     -123.417      38.869     139.926
  O     -122.603      39.370     141.009
  C     -122.450      38.604     138.774
  O     -123.147      38.484     137.554
  C     -121.524      39.797     138.895
  O     -122.106      40.965     138.307
  C     -121.414      39.947     140.432
  N     -120.212      39.324     140.975
  C     -118.999      39.710     140.390
  O     -118.987      40.538     139.476
  N     -117.841      39.125     140.846
  C     -117.882      38.253     141.801
  N     -116.702      37.719     142.203
  C     -119.135      37.833     142.458
  C     -120.249      38.395     141.995
  O     -124.524      34.780     142.291
  O     -122.533      36.019     143.339
  H     -121.561      41.717     138.609
  H     -122.658      35.385     144.070
  H     -119.123      37.105     143.254
  H     -121.217      38.138     142.418
  H     -121.410      41.008     140.712
  H     -120.574      39.613     138.398
  H     -121.868      37.695     138.981
  H     -124.141      39.650     139.656
  H     -115.862      38.033     141.722
  H     -124.992      37.910     141.060
  H     -116.599      37.101     142.997
  H     -124.634      37.134     139.499
  P     -123.008      37.156     136.658
  C     -121.585      38.665     135.122
  O     -121.702      37.388     135.751
  O     -124.244      36.759     135.920
  O     -122.519      36.054     137.716
  H     -123.255      35.770     138.309
  H     -120.682      38.699     134.550
  H     -121.563      39.430     135.870
  H     -122.423      38.822     134.476

 6  7  8  9  10  11  12  13  14  15  16  26  30  31  32  33  35 0
 6-311+G(2d,p)
 ****
 37  38 0
 6-311+G(2d,p)
 ****
 1  2  3  4  5  17  18  19  20  21  22  23  24  25 0
 3-21G
 ****
 27  28  29  34  36  39  40  41  42  43  44  45  46 0
 3-21G
 ****


