%nproc=1
%NoSave
%Mem=1900MB
#P OB98/GEN NMR

erre ene a

0 1
  C      334.072     142.120    -511.232
  O      332.768     142.669    -511.188
  H      334.555     142.283    -510.265
  H      334.673     142.609    -512.010
  H      334.024     141.048    -511.425
  P      331.899     142.709    -512.534
  C      330.433     144.577    -513.550
  O      331.646     144.261    -512.863
  C      330.612     145.825    -514.421
  O      331.070     146.917    -513.569
  C      331.631     145.648    -515.559
  O      331.154     146.365    -516.700
  C      332.875     146.302    -514.999
  O      333.749     146.727    -516.027
  C      332.293     147.433    -514.135
  N      333.243     147.856    -513.101
  C      334.290     148.688    -513.525
  O      334.370     149.031    -514.699
  N      335.257     149.046    -512.616
  C      335.214     148.563    -511.401
  N      336.228     148.933    -510.566
  C      334.141     147.669    -510.927
  C      333.198     147.359    -511.815
  O      330.670     141.859    -512.549
  O      332.937     142.263    -513.670
  H      334.044     145.947    -516.540
  H      332.904     141.294    -513.787
  H      334.151     147.296    -509.914
  H      332.374     146.695    -511.563
  H      332.035     148.302    -514.754
  H      333.416     145.584    -514.358
  H      331.800     144.594    -515.808
  H      329.630     146.118    -514.813
  H      336.949     149.529    -510.951
  H      329.659     144.760    -512.792
  H      336.322     148.591    -509.625
  H      330.135     143.727    -514.173
  P      330.641     145.569    -518.007
  C      331.660     144.260    -519.953
  O      331.914     145.218    -518.931
  O      329.500     146.216    -518.730
  O      330.198     144.132    -517.431
  H      329.472     143.779    -517.986
  H      332.556     144.090    -520.513
  H      330.896     144.628    -520.605
  H      331.337     143.342    -519.509

 6  7  8  9  10  11  12  13  14  15  16  26  30  31  32  33  35 0
 6-311+G(2d,p)
 ****
 37  38 0
 6-311+G(2d,p)
 ****
 1  2  3  4  5  17  18  19  20  21  22  23  24  25 0
 3-21G
 ****
 27  28  29  34  36  39  40  41  42  43  44  45  46 0
 3-21G
 ****


