%nproc=1
%NoSave
%Mem=1900MB
#P OB98/GEN NMR

erre ene a

0 1
  C       40.594      65.617     147.834
  O       39.329      66.184     148.089
  P       39.002      67.734     147.916
  C       40.288      68.979     149.821
  O       39.061      68.432     149.359
  C       40.113      69.642     151.196
  O       41.415      70.077     151.666
  C       39.226      70.893     151.111
  O       38.301      71.025     152.182
  C       40.239      72.016     150.923
  O       39.736      73.299     151.260
  C       41.412      71.517     151.761
  N       44.265      75.606     150.785
  C       43.037      75.533     151.412
  N       42.417      76.710     151.643
  N       42.463      74.405     151.746
  C       43.151      73.310     151.351
  C       44.375      73.259     150.725
  C       45.014      74.510     150.392
  O       46.048      74.622     149.735
  N       44.735      71.973     150.415
  C       43.714      71.247     150.820
  N       42.712      72.017     151.365
  O       37.863      68.081     147.013
  O       40.356      68.279     147.225
  H       40.455      73.942     151.124
  H       40.097      68.998     146.615
  H       44.620      76.505     150.481
  H       43.632      70.171     150.719
  H       41.294      71.784     152.813
  H       40.502      72.047     149.860
  H       42.766      77.580     151.266
  H       38.581      70.848     150.225
  H       41.426      76.673     151.866
  H       39.731      68.902     151.906
  H       40.591      69.727     149.079
  H       41.063      68.210     149.857
  P       36.708      71.100     152.127
  C       36.508      73.447     151.113
  O       36.264      72.633     152.243
  O       36.215      70.480     153.516
  O       36.089      70.362     150.985
  H       35.418      69.935     153.367
  H       36.423      74.495     151.409
  H       35.763      73.235     150.340
  H       37.512      73.270     150.714
  H       40.558      64.564     148.023
  H       41.323      66.069     148.473
  H       40.861      65.787     146.812

 3  4  5  6  7  8  9  10  11  12  23  26  30  31 0
 6-311+G(2d,p)
 ****
 33  35  36  37  38 0
 6-311+G(2d,p)
 ****
 1  2  13  14  15  16  17  18  19  20  21  22  24  25 0
 3-21G
 ****
 27  28  29  32  34  39  40  41  42  43  44  45  46  47  48  49 0
 3-21G
 ****


