%nproc=1
%NoSave
%Mem=1900MB
#P OB98/GEN NMR

erre ene a

0 1
  C     -507.404      68.929      49.381
  O     -506.766      68.610      48.158
  H     -507.892      68.031      49.768
  H     -508.160      69.704      49.220
  H     -506.667      69.276      50.114
  P     -505.965      69.797      47.431
  C     -507.415      70.444      45.372
  O     -507.069      70.720      46.725
  C     -508.083      71.668      44.754
  O     -509.174      72.107      45.592
  C     -507.161      72.873      44.617
  O     -506.294      72.767      43.508
  C     -508.171      74.002      44.493
  O     -508.646      74.140      43.145
  C     -509.310      73.535      45.410
  N     -511.383      77.313      48.153
  C     -511.675      76.822      46.930
  N     -511.077      75.801      46.272
  C     -510.109      75.256      47.023
  C     -509.706      75.645      48.291
  C     -510.387      76.729      48.864
  N     -510.078      77.242      50.104
  N     -508.650      74.865      48.721
  C     -508.425      74.014      47.740
  N     -509.285      74.212      46.694
  O     -505.248      69.051      46.208
  O     -504.987      70.520      48.296
  H     -509.158      74.974      43.119
  H     -504.316      68.875      46.438
  H     -512.478      77.324      46.400
  H     -507.656      73.252      47.734
  H     -510.298      73.711      44.968
  H     -507.733      74.954      44.790
  H     -506.589      73.012      45.545
  H     -508.499      71.385      43.774
  H     -508.106      69.596      45.340
  H     -506.507      70.181      44.819
  H     -510.564      78.065      50.422
  H     -509.266      76.886      50.592
  P     -504.741      73.118      43.733
  C     -505.000      75.710      43.589
  O     -504.673      74.582      44.390
  O     -504.179      73.341      42.252
  O     -503.976      72.070      44.472
  H     -503.253      73.009      42.199
  H     -504.905      76.602      44.173
  H     -506.007      75.619      43.238
  H     -504.334      75.759      42.753

 6  7  8  9  10  11  12  13  14  15  25  28  32  33  34  35 0
 6-311+G(2d,p)
 ****
 36  37  40 0
 6-311+G(2d,p)
 ****
 1  2  3  4  5  16  17  18  19  20  21  22  23  24 0
 3-21G
 ****
 26  27  29  30  31  38  39 41  42  43  44  45  46  47  48 0
 3-21G
 ****


