%nproc=1
%NoSave
%Mem=1900MB
#P OB98/GEN NMR

erre ene a

0 1
  C      163.385       1.395     676.672
  O      164.217       2.120     677.552
  H      163.196       0.410     677.091
  H      163.873       1.282     675.697
  H      162.417       1.909     676.547
  P      164.625       3.609     677.099
  C      166.815       3.204     675.759
  O      165.416       3.443     675.703
  C      167.500       3.785     674.513
  O      166.955       3.195     673.316
  C      167.365       5.293     674.364
  O      168.337       5.985     675.153
  C      167.592       5.470     672.864
  O      168.999       5.449     672.549
  C      166.884       4.227     672.297
  N      163.823       5.533     668.494
  C      165.195       5.334     668.502
  N      165.851       5.578     667.349
  N      165.857       4.953     669.567
  C      165.076       4.779     670.656
  C      163.708       4.933     670.763
  C      162.973       5.325     669.580
  O      161.758       5.449     669.480
  N      163.274       4.660     672.040
  C      164.381       4.379     672.704
  N      165.498       4.466     671.921
  O      165.779       4.011     678.129
  O      163.515       4.602     677.095
  H      169.449       6.139     673.060
  H      165.762       4.978     678.270
  H      163.369       5.803     667.645
  H      164.421       4.109     673.758
  H      167.397       3.842     671.407
  H      167.196       6.415     672.506
  H      165.458       6.169     666.631
  H      166.339       5.619     674.626
  H      166.851       5.457     667.358
  H      168.567       3.494     674.572
  H      166.992       2.124     675.799
  H      167.228       3.673     676.664
  P      167.805       7.064     676.202
  C      167.849       9.122     674.618
  O      167.058       8.202     675.344
  O      169.139       7.795     676.704
  O      167.019       6.498     677.350
  H      168.972       8.281     677.537
  H      167.213       9.811     674.103
  H      168.450       8.593     673.908
  H      168.483       9.658     675.293

 6  7  8  9  10  11  12  13  14  15  26  29  33  34 0
 6-311+G(2d,p)
 ****
 36  38  39  40  41 0
 6-311+G(2d,p)
 ****
 1  2  3  4  5  16  17  18  19  20  21  22  23  24  25 0
 3-21G
 ****
 27  28  30  31  32  35  37  42  43  44  45  46  47 0
 3-21G
 ****
 48  49 0
 3-21G
 ****


