%nproc=1
%NoSave
%Mem=1900MB
#P OB98/GEN NMR

erre ene a

0 1
  C     -352.926    -173.892     -13.768
  O     -353.814    -174.549     -14.649
  H     -353.486    -173.151     -13.191
  H     -352.142    -173.378     -14.331
  H     -352.479    -174.612     -13.080
  P     -353.173    -175.607     -15.668
  C     -355.634    -176.249     -16.203
  O     -354.326    -176.012     -16.706
  C     -356.665    -175.709     -17.190
  O     -356.349    -176.165     -18.529
  C     -358.087    -176.187     -16.927
  O     -358.719    -175.474     -15.877
  C     -358.733    -175.924     -18.275
  O     -359.178    -174.565     -18.396
  C     -357.588    -176.224     -19.260
  N     -357.771    -177.512     -19.927
  C     -358.407    -177.464     -21.165
  O     -358.798    -176.421     -21.686
  N     -358.619    -178.673     -21.771
  C     -358.311    -179.895     -21.251
  O     -358.578    -180.943     -21.826
  C     -357.655    -179.882     -19.933
  C     -357.423    -178.709     -19.338
  O     -352.994    -176.918     -14.768
  O     -351.887    -175.178     -16.296
  H     -352.051    -177.046     -14.556
  H     -358.396    -174.009     -18.205
  H     -359.076    -178.659     -22.671
  H     -357.398    -180.836     -19.491
  H     -356.952    -178.674     -18.360
  H     -357.534    -175.446     -20.034
  H     -359.601    -176.562     -18.422
  H     -358.095    -177.266     -16.732
  H     -356.617    -174.612     -17.181
  H     -355.758    -175.735     -15.244
  H     -355.766    -177.323     -16.047
  P     -359.916    -176.202     -15.094
  C     -358.814    -174.917     -13.078
  O     -359.966    -175.520     -13.643
  O     -359.270    -177.644     -14.846
  O     -361.199    -176.204     -15.854
  H     -358.298    -177.603     -14.807
  H     -359.055    -174.523     -12.113
  H     -358.479    -174.124     -13.713
  H     -358.039    -175.649     -12.982

 6  7  8  9  10  11  12  13  14  15  16  27  31  32  33  34  35 0
 6-311+G(2d,p)
 ****
 36  37 0
 6-311+G(2d,p)
 ****
 1  2  3  4  5  17  18  19  20  21  22  23  24  25 0
 3-21G
 ****
 26  28  29  30  38  39  40  41  42  43  44  45 0
 3-21G
 ****


