%nproc=1
%NoSave
%Mem=1900MB
#P OB98/GEN NMR

erre ene a

0 1
  C        0.396     140.089    -280.350
  O       -0.329     139.554    -281.437
  H        0.076     141.122    -280.186
  H        1.467     140.090    -280.578
  H        0.209     139.512    -279.439
  P       -0.134     137.994    -281.760
  C        1.885     136.623    -282.647
  O        1.206     137.870    -282.637
  C        2.385     136.300    -284.058
  O        1.238     136.172    -284.944
  C        3.314     137.370    -284.642
  O        4.344     136.722    -285.394
  C        2.413     138.152    -285.587
  O        3.142     138.798    -286.629
  C        1.442     137.062    -286.059
  N        0.182     137.634    -286.530
  C        0.265     138.554    -287.584
  O        1.364     138.852    -288.062
  N       -0.889     139.156    -288.028
  C       -2.005     138.932    -287.419
  N       -3.110     139.579    -287.888
  C       -2.133     138.017    -286.260
  C       -1.009     137.406    -285.880
  O       -1.295     137.685    -282.819
  O       -0.185     137.085    -280.576
  H        3.753     138.142    -287.033
  H       -1.618     136.768    -282.733
  H       -3.086     137.881    -285.768
  H       -0.999     136.727    -285.034
  H        1.887     136.476    -286.876
  H        1.877     138.921    -285.023
  H        3.765     138.011    -283.880
  H        2.880     135.322    -284.035
  H       -2.978     140.206    -288.672
  H        1.190     135.836    -282.330
  H       -4.022     139.513    -287.463
  H        2.724     136.657    -281.944
  P        5.855     136.995    -284.925
  C        7.575     138.937    -285.083
  O        6.266     138.476    -285.394
  O        6.716     136.043    -285.888
  O        6.102     136.692    -283.483
  H        7.075     135.291    -285.376
  H        7.701     139.932    -285.456
  H        8.298     138.292    -285.537
  H        7.711     138.934    -284.022

 6  7  8  9  10  11  12  13  14  15  16  26  30  31  32  33  35 0
 6-311+G(2d,p)
 ****
 37  38 0
 6-311+G(2d,p)
 ****
 1  2  3  4  5  17  18  19  20  21  22  23  24  25 0
 3-21G
 ****
 27  28  29  34  36  39  40  41  42  43  44  45  46 0
 3-21G
 ****


