%nproc=1
%NoSave
%Mem=1900MB
#P OB98/GEN NMR

erre ene a

0 1
  C       -9.544     -30.229     -51.251
  O      -10.317     -31.231     -50.621
  H       -9.673     -29.291     -50.706
  H       -9.879     -30.088     -52.282
  H       -8.486     -30.505     -51.237
  P      -10.307     -32.678     -51.314
  C      -12.871     -32.829     -51.658
  O      -11.595     -32.729     -52.271
  C      -13.978     -32.692     -52.700
  O      -14.014     -31.350     -53.232
  C      -13.839     -33.634     -53.891
  O      -14.374     -34.912     -53.592
  C      -14.643     -32.892     -54.949
  O      -16.059     -33.115     -54.773
  C      -14.283     -31.428     -54.659
  N      -12.770     -29.607     -59.118
  C      -13.997     -30.104     -58.728
  N      -14.961     -30.150     -59.675
  N      -14.258     -30.532     -57.522
  C      -13.187     -30.482     -56.695
  C      -11.921     -30.014     -56.961
  C      -11.663     -29.493     -58.286
  O      -10.623     -28.964     -58.667
  N      -11.114     -30.111     -55.856
  C      -11.881     -30.668     -54.938
  N      -13.147     -30.917     -55.401
  O      -10.700     -33.668     -50.117
  O       -9.016     -33.079     -51.942
  H      -16.358     -32.646     -53.974
  H      -10.186     -34.492     -50.211
  H      -12.636     -29.263     -60.051
  H      -11.571     -30.899     -53.928
  H      -15.121     -30.753     -54.867
  H      -14.401     -33.239     -55.954
  H      -14.744     -30.115     -60.660
  H      -12.794     -33.708     -54.216
  H      -15.835     -30.583     -59.407
  H      -14.934     -32.859     -52.188
  H      -12.971     -32.031     -50.915
  H      -12.955     -33.798     -51.155
  P      -13.931     -36.150     -54.506
  C      -16.102     -36.007     -55.923
  O      -14.682     -36.016     -55.919
  O      -14.664     -37.390     -53.807
  O      -12.459     -36.374     -54.582
  H      -14.015     -37.923     -53.313
  H      -16.455     -35.913     -56.929
  H      -16.455     -35.181     -55.342
  H      -16.466     -36.921     -55.501

 6  7  8  9  10  11  12  13  14  15  26  29  33  34 0
 6-311+G(2d,p)
 ****
 36  38  39  40  41 0
 6-311+G(2d,p)
 ****
 1  2  3  4  5  16  17  18  19  20  21  22  23  24  25 0
 3-21G
 ****
 27  28  30  31  32  35  37  42  43  44  45  46  47 0
 3-21G
 ****
 48  49 0
 3-21G
 ****


