%nproc=1
%NoSave
%Mem=1900MB
#P OB98/GEN NMR

erre ene a

0 1
  C     -822.212    -199.912      62.727
  O     -821.715    -201.199      62.423
  H     -823.142    -199.753      62.173
  H     -821.488    -199.157      62.410
  H     -822.416    -199.809      63.794
  P     -820.595    -201.801      63.401
  C     -821.897    -203.865      64.288
  O     -820.846    -203.389      63.462
  C     -822.473    -205.163      63.724
  O     -823.385    -204.830      62.629
  C     -821.417    -206.133      63.173
  O     -821.826    -207.478      63.457
  C     -821.511    -205.918      61.671
  O     -821.034    -207.036      60.931
  C     -823.010    -205.663      61.517
  N     -823.927    -206.683      56.690
  C     -823.851    -207.520      57.784
  N     -823.978    -208.847      57.559
  N     -823.660    -207.096      59.004
  C     -823.568    -205.746      59.096
  C     -823.621    -204.811      58.091
  C     -823.818    -205.296      56.740
  O     -823.868    -204.604      55.726
  N     -823.422    -203.547      58.585
  C     -823.230    -203.721      59.884
  N     -823.308    -205.036      60.243
  O     -821.076    -201.289      64.842
  O     -819.195    -201.389      63.098
  H     -820.152    -207.280      61.278
  H     -820.608    -200.461      65.067
  H     -824.058    -207.064      55.766
  H     -823.015    -202.936      60.596
  H     -823.600    -206.588      61.564
  H     -820.928    -205.036      61.382
  H     -824.157    -209.243      56.652
  H     -820.407    -205.963      63.566
  H     -823.964    -209.466      58.358
  H     -823.077    -205.649      64.503
  H     -822.692    -203.111      64.333
  H     -821.516    -204.027      65.304
  P     -820.743    -208.650      63.295
  C     -820.424    -209.312      65.788
  O     -820.918    -209.679      64.508
  O     -819.362    -207.914      63.625
  O     -820.726    -209.259      61.931
  H     -818.648    -208.290      63.079
  H     -820.617    -210.101      66.484
  H     -820.913    -208.419      66.116
  H     -819.370    -209.140      65.727

 6  7  8  9  10  11  12  13  14  15  26  29  33  34 0
 6-311+G(2d,p)
 ****
 36  38  39  40  41 0
 6-311+G(2d,p)
 ****
 1  2  3  4  5  16  17  18  19  20  21  22  23  24  25 0
 3-21G
 ****
 27  28  30  31  32  35  37  42  43  44  45  46  47 0
 3-21G
 ****
 48  49 0
 3-21G
 ****


