%nproc=1
%NoSave
%Mem=1900MB
#P OB98/GEN NMR

erre ene a

0 1
  C       26.316      55.854     -87.108
  O       25.952      54.610     -86.506
  P       27.032      53.751     -85.688
  C       27.810      52.135     -87.516
  O       28.177      53.241     -86.698
  C       28.930      51.097     -87.673
  O       30.005      51.611     -88.498
  C       29.561      50.624     -86.356
  O       29.922      49.254     -86.562
  C       30.795      51.503     -86.260
  O       31.768      50.979     -85.360
  C       31.224      51.570     -87.731
  N       32.082      52.718     -88.010
  C       33.462      52.502     -87.981
  O       33.911      51.394     -87.670
  N       34.303      53.554     -88.254
  C       33.810      54.742     -88.436
  N       34.694      55.748     -88.677
  C       32.362      55.033     -88.391
  C       31.563      53.982     -88.184
  O       26.450      52.677     -84.821
  O       27.790      54.845     -84.791
  H       31.405      51.038     -84.447
  H       28.095      54.425     -83.962
  H       31.998      56.042     -88.524
  H       30.489      54.096     -88.140
  H       31.766      50.656     -88.019
  H       30.516      52.500     -85.899
  H       28.897      50.732     -85.494
  H       28.507      50.238     -88.209
  H       35.682      55.509     -88.675
  H       27.531      52.513     -88.509
  H       34.428      56.723     -88.718
  H       26.918      51.658     -87.092
  P       28.978      48.049     -86.097
  C       29.442      48.525     -83.621
  O       28.449      48.415     -84.628
  O       29.586      46.690     -86.217
  O       27.658      48.180     -87.005
  H       27.172      47.338     -86.984
  H       28.996      48.980     -82.734
  H       30.273      49.151     -83.965
  H       29.815      47.531     -83.366
  H       25.465      56.272     -87.604
  H       27.099      55.691     -87.819
  H       26.656      56.530     -86.352

 3  4  5  6  7  8  9  10  11  12  13  23  27  28  29  30  32 0
 6-311+G(2d,p)
 ****
 34  35 0
 6-311+G(2d,p)
 ****
 1  2  14  15  16  17  18  19  20  21  22  24  25  26 0
 3-21G
 ****
 31  33  36  37  38  39  40  41  42  43  44  45  46 0
 3-21G
 ****


