%nproc=1
%NoSave
%Mem=1900MB
#P OB98/GEN NMR

erre ene a

0 1
  C     1296.625    -558.997    -187.032
  O     1296.296    -559.940    -188.045
  H     1296.172    -558.041    -187.293
  H     1297.702    -558.871    -186.963
  H     1296.230    -559.330    -186.065
  P     1296.853    -561.438    -187.897
  C     1295.814    -563.800    -188.068
  O     1295.566    -562.397    -187.992
  C     1294.650    -564.568    -187.456
  O     1294.591    -564.357    -186.032
  C     1293.274    -564.156    -188.002
  O     1293.033    -564.787    -189.250
  C     1292.377    -564.648    -186.891
  O     1292.224    -566.094    -186.985
  C     1293.204    -564.291    -185.638
  N     1291.126    -561.671    -181.807
  C     1291.164    -563.033    -182.047
  N     1290.495    -563.801    -181.156
  N     1291.755    -563.581    -183.064
  C     1292.306    -562.693    -183.929
  C     1292.323    -561.316    -183.806
  C     1291.710    -560.712    -182.656
  O     1291.679    -559.514    -182.397
  N     1292.927    -560.737    -184.906
  C     1293.290    -561.763    -185.642
  N     1292.926    -562.963    -185.096
  O     1297.724    -561.704    -186.697
  O     1297.622    -561.712    -189.274
  H     1291.925    -566.269    -187.900
  H     1298.571    -561.481    -189.196
  H     1290.629    -561.295    -181.026
  H     1293.835    -561.673    -186.596
  H     1293.057    -565.006    -184.816
  H     1291.373    -564.221    -186.912
  H     1289.802    -563.428    -180.525
  H     1293.174    -563.071    -188.077
  H     1290.470    -564.801    -181.316
  H     1294.826    -565.635    -187.617
  H     1296.738    -564.007    -187.521
  H     1295.936    -564.102    -189.115
  P     1291.679    -564.525    -190.065
  C     1291.119    -564.336    -192.591
  O     1292.144    -564.330    -191.605
  O     1290.833    -563.399    -189.523
  O     1290.930    -565.935    -190.105
  H     1290.343    -566.086    -189.333
  H     1291.554    -564.199    -193.559
  H     1290.430    -563.541    -192.394
  H     1290.601    -565.272    -192.562

 6  7  8  9  10  11  12  13  14  15  26  29  33  34 0
 6-311+G(2d,p)
 ****
 36  38  39  40  41 0
 6-311+G(2d,p)
 ****
 1  2  3  4  5  16  17  18  19  20  21  22  23  24  25 0
 3-21G
 ****
 27  28  30  31  32  35  37  42  43  44  45  46  47 0
 3-21G
 ****
 48  49 0
 3-21G
 ****


