%nproc=1
%NoSave
%Mem=1900MB
#P OB98/GEN NMR

erre ene a

0 1
  C       45.712    -122.016     286.929
  O       45.752    -122.092     288.349
  P       46.860    -121.211     289.110
  C       48.895    -122.354     290.252
  O       48.219    -122.069     289.032
  C       48.308    -123.595     290.914
  O       48.263    -124.687     289.971
  C       49.107    -124.117     292.106
  O       48.811    -123.409     293.300
  C       48.584    -125.545     292.198
  O       47.302    -125.563     292.846
  C       48.430    -125.926     290.718
  N       50.136    -130.496     289.171
  C       48.954    -130.111     289.713
  N       48.583    -128.870     290.116
  C       49.584    -127.993     289.934
  C       50.847    -128.252     289.430
  C       51.114    -129.573     289.027
  N       52.301    -129.957     288.449
  N       51.609    -127.104     289.405
  C       50.816    -126.163     289.872
  N       49.574    -126.649     290.195
  O       46.426    -121.334     290.646
  O       46.957    -119.792     288.659
  H       47.466    -125.453     293.807
  H       46.780    -120.577     291.150
  H       48.210    -130.896     289.842
  H       51.083    -125.118     289.980
  H       47.542    -126.540     290.536
  H       49.242    -126.200     292.779
  H       50.181    -124.128     291.889
  H       47.277    -123.370     291.215
  H       48.782    -121.504     290.934
  H       52.343    -130.875     288.015
  H       52.947    -129.230     288.154
  H       49.958    -122.499     290.046
  P       49.874    -123.532     294.496
  C       48.725    -124.699     296.520
  O       49.456    -124.839     295.311
  O       49.475    -122.324     295.469
  O       51.303    -123.452     294.054
  H       50.241    -122.038     295.993
  H       48.266    -125.650     296.770
  H       47.938    -123.942     296.421
  H       49.410    -124.414     297.330
  H       44.932    -122.649     286.560
  H       46.651    -122.336     286.528
  H       45.523    -121.006     286.631

 3  4  5  6  7  8  9  10  11  12  22  25  29  30  31  32 0
 6-311+G(2d,p)
 ****
 33  36  37 0
 6-311+G(2d,p)
 ****
 1  2  13  14  15  16  17  18  19  20  21  23  24  26 0
 3-21G
 ****
 27  28  34  35  38  39  40  41  42  43  44  45  46  47  48 0
 3-21G
 ****


