%nproc=1
%NoSave
%Mem=1900MB
#P OB98/GEN NMR

erre ene a

0 1
  C      163.553     161.328     238.855
  O      163.271     162.691     238.590
  H      163.202     160.732     238.008
  H      163.025     161.006     239.756
  H      164.627     161.168     238.975
  P      163.819     163.803     239.605
  C      161.660     164.987     238.837
  O      162.992     165.148     239.321
  C      160.727     165.947     239.580
  O      160.589     165.541     240.959
  C      161.233     167.390     239.624
  O      161.028     168.036     238.383
  C      160.414     167.951     240.776
  O      159.092     168.305     240.339
  C      160.371     166.741     241.745
  N      161.348     166.853     242.827
  C      161.172     166.011     243.919
  O      160.227     165.219     244.008
  N      162.100     166.119     244.913
  C      163.101     167.046     244.980
  O      163.851     167.162     245.943
  C      163.223     167.934     243.819
  C      162.360     167.795     242.807
  O      165.303     163.972     239.640
  O      163.254     163.327     241.028
  H      158.748     167.533     239.850
  H      163.975     162.934     241.551
  H      161.982     165.515     245.721
  H      164.015     168.674     243.829
  H      162.435     168.449     241.946
  H      159.372     166.646     242.184
  H      160.861     168.845     241.208
  H      162.296     167.412     239.901
  H      159.732     165.897     239.114
  H      161.339     163.961     239.024
  H      161.639     165.187     237.761
  P      162.206     168.913     237.738
  C      160.690     170.944     237.232
  O      161.542     169.928     236.688
  O      163.373     168.140     237.227
  O      162.656     169.880     238.936
  H      163.600     169.724     239.146
  H      160.310     171.554     236.439
  H      161.249     171.552     237.912
  H      159.874     170.485     237.751

 6  7  8  9  10  11  12  13  14  15  16  26  31  32  33  34  35 0
 6-311+G(2d,p)
 ****
 36  37 0
 6-311+G(2d,p)
 ****
 1  2  3  4  5  17  18  19  20  21  22  23  24  25 0
 3-21G
 ****
 27  28  29  30  38  39  40  41  42  43  44  45 0
 3-21G
 ****


