%nproc=1
%NoSave
%Mem=1900MB
#P OB98/GEN NMR

erre ene a

0 1
  C      164.871    -407.747     -69.167
  O      166.115    -407.635     -69.826
  H      164.197    -408.356     -69.778
  H      164.420    -406.758     -69.033
  H      164.999    -408.231     -68.194
  P      167.216    -406.690     -69.146
  C      169.063    -407.724     -70.651
  O      168.418    -406.546     -70.199
  C      170.055    -407.369     -71.762
  O      171.082    -406.486     -71.239
  C      170.804    -408.563     -72.332
  O      170.030    -409.305     -73.257
  C      171.993    -407.878     -72.986
  O      171.677    -407.405     -74.300
  C      172.267    -406.702     -72.021
  N      173.442    -406.948     -71.188
  C      174.663    -406.942     -71.851
  O      174.778    -406.740     -73.066
  N      175.765    -407.212     -71.081
  C      175.752    -407.532     -69.756
  O      176.763    -407.823     -69.141
  C      174.431    -407.540     -69.111
  C      173.349    -407.258     -69.848
  O      167.827    -407.613     -67.992
  O      166.693    -405.397     -68.611
  H      167.505    -407.309     -67.123
  H      171.468    -408.207     -74.825
  H      176.658    -407.207     -71.552
  H      174.381    -407.792     -68.056
  H      172.360    -407.267     -69.396
  H      172.437    -405.778     -72.594
  H      172.837    -408.560     -73.075
  H      171.169    -409.211     -71.517
  H      169.514    -406.834     -72.554
  H      168.318    -408.421     -71.053
  H      169.571    -408.202     -69.809
  P      170.462    -410.831     -73.544
  C      168.352    -411.229     -75.072
  O      169.767    -411.228     -74.933
  O      169.604    -411.588     -72.427
  O      171.932    -411.051     -73.460
  H      168.796    -411.094     -72.192
  H      168.092    -411.521     -76.068
  H      167.974    -410.247     -74.877
  H      167.926    -411.920     -74.375

 6  7  8  9  10  11  12  13  14  15  16  27  31  32  33  34  35 0
 6-311+G(2d,p)
 ****
 36  37 0
 6-311+G(2d,p)
 ****
 1  2  3  4  5  17  18  19  20  21  22  23  24  25 0
 3-21G
 ****
 26  28  29  30  38  39  40  41  42  43  44  45 0
 3-21G
 ****


