%nproc=1
%NoSave
%Mem=1900MB
#P OB98/GEN NMR

erre ene a

0 1
  C      502.517    -434.334     390.898
  O      502.045    -435.287     391.865
  P      502.644    -435.354     393.354
  C      502.194    -437.872     393.733
  O      501.907    -436.537     394.159
  C      500.919    -438.695     393.571
  O      500.304    -438.441     392.289
  C      501.129    -440.208     393.644
  O      501.271    -440.624     394.995
  C      499.882    -440.717     392.930
  O      498.754    -440.717     393.824
  C      499.690    -439.668     391.833
  N      498.750    -442.217     387.498
  C      497.978    -441.960     388.575
  N      498.311    -441.275     389.697
  C      499.569    -440.816     389.622
  C      500.477    -441.001     388.589
  C      500.027    -441.748     387.479
  N      500.814    -442.019     386.383
  N      501.686    -440.409     388.879
  C      501.507    -439.852     390.069
  N      500.242    -440.067     390.552
  O      502.659    -434.042     394.070
  O      504.135    -435.909     393.165
  H      498.924    -441.394     394.508
  H      504.706    -435.575     393.889
  H      496.974    -442.356     388.540
  H      502.247    -439.283     390.602
  H      498.629    -439.444     391.671
  H      500.000    -441.743     392.554
  H      502.018    -440.491     393.073
  H      500.207    -438.372     394.337
  H      502.845    -438.339     394.476
  H      500.434    -442.591     385.651
  H      501.778    -441.717     386.391
  H      502.738    -437.814     392.776
  P      502.657    -441.225     395.516
  C      502.324    -443.771     395.620
  O      502.317    -442.550     396.344
  O      503.564    -440.257     396.194
  O      503.340    -441.810     394.181
  H      504.305    -441.774     394.270
  H      501.381    -443.874     395.072
  H      502.417    -444.605     396.328
  H      503.161    -443.803     394.919
  H      501.985    -434.465     389.979
  H      503.563    -434.485     390.729
  H      502.355    -433.342     391.266

 3  4  5  6  7  8  9  10  11  12  22  25  29  30  31  32 0
 6-311+G(2d,p)
 ****
 33  36  37 0
 6-311+G(2d,p)
 ****
 1  2  13  14  15  16  17  18  19  20  21  23  24  26 0
 3-21G
 ****
 27  28  34  35  38  39  40  41  42  43  44  45  46  47  48 0
 3-21G
 ****


