%nproc=1
%NoSave
%Mem=1900MB
#P OB98/GEN NMR

erre ene a

0 1
  C     -157.619      38.984     170.200
  O     -157.918      39.787     171.358
  P     -159.381      40.443     171.417
  C     -160.857      38.626     172.555
  O     -160.141      39.850     172.701
  C     -160.664      37.758     173.796
  O     -159.406      37.040     173.766
  C     -160.639      38.552     175.103
  O     -161.949      38.970     175.469
  C     -160.008      37.532     176.044
  O     -160.989      36.576     176.481
  C     -158.974      36.845     175.134
  N     -154.033      35.570     175.531
  C     -155.148      34.826     175.371
  N     -156.434      35.241     175.277
  C     -156.503      36.581     175.350
  C     -155.451      37.476     175.503
  C     -154.163      36.918     175.597
  N     -153.022      37.683     175.773
  N     -155.923      38.775     175.538
  C     -157.235      38.665     175.424
  N     -157.628      37.362     175.297
  O     -160.142      39.767     170.180
  O     -159.377      41.934     171.311
  H     -160.511      35.871     176.971
  H     -160.269      40.419     169.468
  H     -154.986      33.753     175.320
  H     -157.927      39.499     175.429
  H     -158.936      35.766     175.309
  H     -159.581      37.989     176.943
  H     -159.984      39.427     174.995
  H     -161.482      37.014     173.828
  H     -160.515      38.089     171.671
  H     -152.153      37.205     175.914
  H     -153.126      38.680     175.912
  H     -161.913      38.859     172.394
  P     -162.272      40.539     175.380
  C     -163.496      40.690     173.128
  O     -163.645      40.588     174.529
  O     -161.188      41.041     174.327
  O     -162.302      41.253     176.694
  H     -161.126      40.452     173.559
  H     -164.495      40.679     172.667
  H     -162.920      39.843     172.740
  H     -162.997      41.635     172.867
  H     -156.621      38.605     170.277
  H     -157.706      39.584     169.318
  H     -158.308      38.167     170.145

 3  4  5  6  7  8  9  10  11  12  22  25  29  30  31  32 0
 6-311+G(2d,p)
 ****
 33  36  37 0
 6-311+G(2d,p)
 ****
 1  2  13  14  15  16  17  18  19  20  21  23  24  26 0
 3-21G
 ****
 27  28  34  35  38  39  40  41  42  43  44  45  46  47  48 0
 3-21G
 ****


