%nproc=1
%NoSave
%Mem=1900MB
#P OB98/GEN NMR

erre ene a

0 1
  C     -383.564    -156.216      39.888
  O     -383.852    -157.351      40.681
  H     -383.516    -156.521      38.840
  H     -382.601    -155.786      40.172
  H     -384.354    -155.469      40.001
  P     -383.864    -157.140      42.269
  C     -381.615    -158.441      42.389
  O     -382.347    -157.281      42.769
  C     -380.246    -158.028      41.856
  O     -380.408    -157.120      40.740
  C     -379.388    -157.277      42.863
  O     -378.763    -158.139      43.801
  C     -378.387    -156.602      41.944
  O     -377.294    -157.472      41.614
  C     -379.237    -156.280      40.699
  N     -379.581    -154.862      40.632
  C     -378.503    -153.990      40.490
  O     -377.334    -154.363      40.421
  N     -378.816    -152.658      40.467
  C     -380.064    -152.127      40.618
  O     -380.267    -150.917      40.646
  C     -381.159    -153.094      40.782
  C     -380.871    -154.400      40.783
  O     -384.569    -158.473      42.809
  O     -384.566    -155.908      42.737
  H     -385.476    -158.269      43.103
  H     -376.673    -156.935      41.083
  H     -378.051    -152.008      40.363
  H     -382.161    -152.705      40.904
  H     -381.661    -155.134      40.914
  H     -378.693    -156.546      39.786
  H     -377.964    -155.717      42.409
  H     -379.984    -156.506      43.369
  H     -379.725    -158.926      41.500
  H     -382.154    -158.974      41.602
  H     -381.518    -159.101      43.256
  P     -379.041    -157.874      45.360
  C     -376.563    -157.177      45.902
  O     -377.933    -156.815      45.829
  O     -378.565    -159.268      45.983
  O     -380.458    -157.501      45.647
  H     -377.889    -159.700      45.432
  H     -375.989    -156.337      46.233
  H     -376.223    -157.482      44.935
  H     -376.444    -157.985      46.593

 6  7  8  9  10  11  12  13  14  15  16  27  31  32  33  34  35 0
 6-311+G(2d,p)
 ****
 36  37 0
 6-311+G(2d,p)
 ****
 1  2  3  4  5  17  18  19  20  21  22  23  24  25 0
 3-21G
 ****
 26  28  29  30  38  39  40  41  42  43  44  45 0
 3-21G
 ****


