%nproc=1
%NoSave
%Mem=1900MB
#P OB98/GEN NMR

erre ene a

0 1
  C       -1.059    -217.820     -12.631
  O       -0.655    -216.504     -12.933
  H       -2.107    -217.940     -12.919
  H       -0.971    -217.993     -11.553
  H       -0.460    -218.558     -13.170
  P        0.909    -216.181     -13.031
  C        1.013    -215.514     -10.538
  O        1.537    -216.353     -11.561
  C        2.023    -215.285      -9.412
  O        2.277    -216.523      -8.708
  C        3.380    -214.812      -9.938
  O        3.488    -213.419     -10.173
  C        4.318    -215.253      -8.816
  O        4.372    -214.264      -7.775
  C        3.656    -216.537      -8.306
  N        6.714    -220.505      -7.289
  C        6.370    -219.443      -6.475
  N        6.960    -219.402      -5.262
  N        5.538    -218.499      -6.835
  C        5.100    -218.618      -8.113
  C        5.385    -219.618      -9.017
  C        6.265    -220.689      -8.590
  O        6.606    -221.649      -9.274
  N        4.753    -219.406     -10.220
  C        4.151    -218.242     -10.066
  N        4.312    -217.737      -8.796
  O        0.955    -214.590     -13.242
  O        1.643    -216.890     -14.130
  H        3.491    -214.203      -7.365
  H        1.771    -214.341     -13.711
  H        7.340    -221.216      -6.950
  H        3.570    -217.735     -10.829
  H        3.671    -216.585      -7.209
  H        5.343    -215.388      -9.177
  H        7.693    -220.040      -4.985
  H        3.649    -215.361     -10.848
  H        6.942    -218.517      -4.749
  H        1.602    -214.578      -8.687
  H        0.124    -216.015     -10.146
  H        0.687    -214.559     -10.960
  P        4.450    -212.874     -11.333
  C        6.556    -213.004      -9.807
  O        5.928    -213.405     -11.003
  O        4.531    -211.304     -11.017
  O        3.975    -213.139     -12.721
  H        3.889    -210.819     -11.569
  H        7.528    -213.447      -9.749
  H        5.968    -213.322      -8.971
  H        6.649    -211.938      -9.793

 6  7  8  9  10  11  12  13  14  15  26  29  33  34 0
 6-311+G(2d,p)
 ****
 36  38  39  40  41 0
 6-311+G(2d,p)
 ****
 1  2  3  4  5  16  17  18  19  20  21  22  23  24  25 0
 3-21G
 ****
 27  28  30  31  32  35  37  42  43  44  45  46  47 0
 3-21G
 ****
 48  49 0
 3-21G
 ****


