%nproc=1
%NoSave
%Mem=1900MB
#P OB98/GEN NMR

erre ene a

0 1
  C       11.984      37.251     -15.918
  O       12.578      37.824     -17.079
  P       12.489      39.415     -17.248
  C       13.914      40.677     -15.443
  O       13.861      40.042     -16.706
  C       15.211      41.492     -15.288
  O       16.333      40.637     -15.628
  C       15.334      42.703     -16.206
  O       16.335      43.577     -15.679
  C       15.839      42.072     -17.485
  O       16.418      43.039     -18.356
  C       16.798      40.982     -16.959
  N       16.845      39.773     -17.810
  C       17.369      39.887     -19.095
  O       17.797      40.936     -19.571
  N       17.355      38.749     -19.854
  C       16.917      37.524     -19.453
  O       16.845      36.558     -20.202
  C       16.505      37.427     -18.047
  C       16.478      38.536     -17.306
  O       11.402      39.848     -16.159
  O       12.112      39.853     -18.622
  H       17.105      43.512     -17.833
  H       10.560      40.072     -16.594
  H       17.669      38.833     -20.810
  H       16.214      36.454     -17.670
  H       16.157      38.485     -16.269
  H       17.825      41.363     -16.881
  H       15.005      41.609     -18.021
  H       14.402      43.253     -16.360
  H       15.328      41.787     -14.240
  H       13.837      39.932     -14.649
  H       13.052      41.345     -15.332
  P       15.853      44.936     -14.978
  C       15.672      43.953     -12.611
  O       16.353      44.859     -13.456
  O       14.420      45.301     -15.170
  O       16.837      46.033     -15.612
  H       16.455      46.922     -15.495
  H       16.362      43.606     -11.838
  H       15.298      43.089     -13.167
  H       14.834      44.467     -12.134
  H       12.118      36.190     -15.936
  H       10.939      37.479     -15.903
  H       12.450      37.654     -15.043

 3  4  5  6  7  8  9  10  11  12  13  23  28  29  30  31  32 0
 6-311+G(2d,p)
 ****
 33  34 0
 6-311+G(2d,p)
 ****
 1  2  14  15  16  17  18  19  20  21  22  24  25  26  27 0
 3-21G
 ****
 35  36  37  38  39  40  41  42  43  44  45 0
 3-21G
 ****


