%nproc=1
%NoSave
%Mem=1900MB
#P OB98/GEN NMR

erre ene a

0 1
  C      382.059    -240.424    -898.020
  O      383.020    -241.492    -897.920
  P      384.537    -241.178    -898.330
  C      385.581    -241.275    -895.953
  O      385.250    -240.476    -897.080
  C      386.562    -240.530    -895.037
  O      387.835    -240.297    -895.715
  C      386.074    -239.171    -894.559
  O      385.220    -239.275    -893.442
  C      387.378    -238.501    -894.164
  O      387.774    -238.962    -892.852
  C      388.344    -239.021    -895.238
  N      391.702    -236.904    -898.380
  C      391.888    -237.822    -897.360
  N      393.155    -238.227    -897.150
  N      390.934    -238.281    -896.618
  C      389.709    -237.805    -896.940
  C      389.387    -236.882    -897.930
  C      390.473    -236.366    -898.740
  O      390.368    -235.530    -899.650
  N      388.047    -236.629    -897.950
  C      387.552    -237.393    -897.010
  N      388.511    -238.099    -896.353
  O      384.382    -239.970    -899.380
  O      385.253    -242.341    -898.930
  H      388.524    -238.400    -892.582
  H      385.126    -239.981    -900.000
  H      392.470    -236.558    -898.920
  H      386.479    -237.447    -896.765
  H      389.355    -239.227    -894.824
  H      387.276    -237.410    -894.111
  H      393.954    -237.957    -897.720
  H      385.606    -238.617    -895.410
  H      393.316    -238.926    -896.436
  H      386.747    -241.187    -894.165
  H      386.008    -242.230    -896.266
  H      384.665    -241.536    -895.415
  P      383.636    -239.152    -893.684
  C      383.232    -241.614    -892.941
  O      383.100    -240.639    -893.954
  O      383.545    -238.429    -895.114
  O      382.902    -238.380    -892.629
  H      382.746    -237.857    -895.153
  H      382.666    -242.508    -893.249
  H      382.815    -241.236    -891.986
  H      384.291    -241.871    -892.809
  H      381.097    -240.780    -897.715
  H      382.009    -240.083    -899.033
  H      382.357    -239.615    -897.386

 3  4  5  6  7  8  9  10  11  12  23  26  30  31 0
 6-311+G(2d,p)
 ****
 33  35  36  37  38 0
 6-311+G(2d,p)
 ****
 1  2  13  14  15  16  17  18  19  20  21  22  24  25 0
 3-21G
 ****
 27  28  29  32  34  39  40  41  42  43  44  45  46  47  48  49 0
 3-21G
 ****


