%nproc=1
%NoSave
%Mem=1900MB
#P OB98/GEN NMR

erre ene a

0 1
  C     -897.600     948.567    -218.213
  O     -897.940     947.808    -217.071
  H     -897.000     949.426    -217.897
  H     -898.500     948.930    -218.713
  H     -897.010     947.958    -218.917
  P     -898.660     946.388    -217.335
  C     -898.330     945.683    -214.868
  O     -899.260     945.910    -215.919
  C     -898.750     944.446    -214.063
  O     -898.960     943.307    -214.939
  C     -897.730     943.993    -213.020
  O     -897.830     944.734    -211.809
  C     -898.160     942.540    -212.812
  O     -899.330     942.506    -211.968
  C     -898.530     942.114    -214.260
  N     -896.300     937.779    -215.666
  C     -897.450     937.991    -214.884
  N     -898.080     936.890    -214.436
  N     -897.920     939.178    -214.614
  C     -897.180     940.194    -215.125
  C     -896.030     940.110    -215.905
  C     -895.530     938.784    -216.231
  O     -894.570     938.540    -216.925
  N     -895.580     941.330    -216.254
  C     -896.410     942.181    -215.679
  N     -897.400     941.521    -214.975
  O     -897.420     945.397    -217.577
  O     -899.620     946.349    -218.482
  H     -900.000     943.072    -212.379
  H     -897.680     944.739    -218.246
  H     -895.970     936.847    -215.849
  H     -896.360     943.246    -215.747
  H     -899.340     941.397    -214.273
  H     -897.400     941.946    -212.317
  H     -897.750     935.954    -214.574
  H     -896.710     944.010    -213.424
  H     -898.940     936.998    -213.892
  H     -899.710     944.665    -213.582
  H     -898.320     946.544    -214.191
  H     -897.320     945.523    -215.283
  P     -896.600     945.690    -211.402
  C     -898.290     947.613    -211.086
  O     -897.240     946.865    -210.515
  O     -896.240     946.404    -212.770
  O     -895.430     944.982    -210.817
  H     -895.310     946.717    -212.762
  H     -898.618     948.356    -210.390
  H     -899.105     946.961    -211.322
  H     -897.944     948.089    -211.979

 6  7  8  9  10  11  12  13  14  15  26  29  33  34 0
 6-311+G(2d,p)
 ****
 36  38  39  40  41 0
 6-311+G(2d,p)
 ****
 1  2  3  4  5  16  17  18  19  20  21  22  23  24  25 0
 3-21G
 ****
 27  28  30  31  32  35  37  42  43  44  45  46  47 0
 3-21G
 ****
 48  49 0
 3-21G
 ****


