%nproc=1
%NoSave
%Mem=1900MB
#P OB98/GEN NMR

erre ene a

0 1
  C       50.902      16.857     -34.356
  O       50.730      17.995     -33.535
  H       50.318      16.033     -33.940
  H       51.955      16.568     -34.373
  H       50.554      17.059     -35.373
  P       51.306      19.388     -34.079
  C       53.553      19.404     -32.771
  O       52.260      19.969     -32.924
  C       54.106      19.734     -31.386
  O       54.308      21.173     -31.298
  C       53.180      19.329     -30.232
  O       53.990      18.893     -29.135
  C       52.503      20.635     -29.861
  O       52.003      20.669     -28.532
  C       53.643      21.630     -30.103
  N       53.167      23.003     -30.259
  C       53.165      23.810     -29.126
  O       53.611      23.482     -28.029
  N       52.615      25.056     -29.292
  C       52.063      25.548     -30.437
  O       51.568      26.666     -30.516
  C       52.087      24.645     -31.596
  C       52.626      23.433     -31.454
  O       50.030      20.350     -34.025
  O       51.930      19.340     -35.434
  H       49.537      20.310     -34.865
  H       52.714      20.342     -27.943
  H       52.605      25.654     -28.481
  H       51.648      24.998     -32.520
  H       52.641      22.734     -32.284
  H       54.370      21.583     -29.286
  H       51.666      20.827     -30.542
  H       52.456      18.549     -30.490
  H       55.092      19.265     -31.279
  H       54.223      19.820     -33.530
  H       53.491      18.320     -32.910
  P       54.356      17.332     -29.064
  C       52.068      16.604     -28.017
  O       53.474      16.736     -27.866
  O       55.841      17.390     -28.476
  O       54.221      16.642     -30.380
  H       55.969      18.113     -27.839
  H       51.650      16.192     -27.122
  H       51.857      15.955     -28.841
  H       51.637      17.566     -28.201

 6  7  8  9  10  11  12  13  14  15  16  27  31  32  33  34  35 0
 6-311+G(2d,p)
 ****
 36  37 0
 6-311+G(2d,p)
 ****
 1  2  3  4  5  17  18  19  20  21  22  23  24  25 0
 3-21G
 ****
 26  28  29  30  38  39  40  41  42  43  44  45 0
 3-21G
 ****


