%nproc=1
%NoSave
%Mem=1900MB
#P OB98/GEN NMR

erre ene a

0 1
  C     -107.332      -6.037    -133.409
  O     -107.103      -6.540    -132.102
  P     -106.714      -8.081    -131.879
  C     -104.515      -9.407    -131.998
  O     -105.231      -8.268    -132.463
  C     -103.327      -9.706    -132.910
  O     -103.825     -10.198    -134.178
  C     -102.462      -8.484    -133.202
  O     -101.093      -8.895    -133.290
  C     -102.907      -8.029    -134.582
  O     -101.860      -7.311    -135.256
  C     -103.302      -9.361    -135.225
  N     -104.207      -8.631    -140.228
  C     -103.056      -8.775    -139.536
  N     -102.888      -8.940    -138.206
  C     -104.078      -9.005    -137.584
  C     -105.334      -8.880    -138.154
  C     -105.376      -8.681    -139.548
  N     -106.552      -8.545    -140.252
  N     -106.323      -8.970    -137.194
  C     -105.671      -9.167    -136.068
  N     -104.314      -9.208    -136.252
  O     -107.711      -9.063    -132.392
  O     -106.502      -8.218    -130.303
  H     -102.236      -6.976    -136.096
  H     -106.846      -9.075    -129.985
  H     -102.147      -8.754    -140.128
  H     -106.130      -9.275    -135.097
  H     -102.434      -9.868    -135.667
  H     -103.768      -7.357    -134.488
  H     -102.573      -7.696    -132.448
  H     -102.731     -10.505    -132.458
  H     -105.193     -10.263    -131.999
  H     -106.491      -8.529    -141.259
  H     -107.421      -8.755    -139.777
  H     -104.178      -9.229    -130.972
  P      -99.999      -7.786    -132.876
  C      -99.685      -6.401    -130.695
  O     -100.548      -7.162    -131.508
  O      -99.717      -6.836    -133.997
  O      -98.765      -8.711    -132.453
  H      -99.064      -9.601    -132.168
  H     -100.225      -6.099    -129.795
  H      -99.360      -5.500    -131.224
  H      -98.812      -6.993    -130.402
  H     -107.577      -4.997    -133.353
  H     -108.142      -6.571    -133.860
  H     -106.449      -6.164    -134.000

 3  4  5  6  7  8  9  10  11  12  22  25  29  30  31  32 0
 6-311+G(2d,p)
 ****
 33  36  37 0
 6-311+G(2d,p)
 ****
 1  2  13  14  15  16  17  18  19  20  21  23  24  26 0
 3-21G
 ****
 27  28  34  35  38  39  40  41  42  43  44  45  46  47  48 0
 3-21G
 ****


