%nproc=1
%NoSave
%Mem=1900MB
#P OB98/GEN NMR

erre ene a

0 1
  C      -62.460     -16.956     -16.724
  O      -61.436     -17.918     -16.589
  H      -63.369     -17.456     -17.070
  H      -62.175     -16.199     -17.460
  H      -62.661     -16.482     -15.760
  P      -59.990     -17.381     -16.146
  C      -59.349     -17.203     -18.658
  O      -59.404     -16.558     -17.393
  C      -58.565     -16.338     -19.639
  O      -59.211     -15.053     -19.788
  C      -57.143     -16.028     -19.195
  O      -56.259     -17.113     -19.419
  C      -56.826     -14.821     -20.063
  O      -56.381     -15.215     -21.371
  C      -58.189     -14.097     -20.136
  N      -58.230     -12.915     -19.282
  C      -58.083     -11.694     -19.933
  O      -57.926     -11.594     -21.149
  N      -58.084     -10.585     -19.132
  C      -58.175     -10.581     -17.769
  O      -58.096      -9.556     -17.104
  C      -58.344     -11.900     -17.136
  C      -58.353     -12.991     -17.908
  O      -59.102     -18.713     -16.116
  O      -59.958     -16.652     -14.843
  H      -58.973     -19.006     -15.195
  H      -56.426     -14.412     -21.927
  H      -57.967      -9.692     -19.584
  H      -58.427     -11.933     -16.056
  H      -58.456     -13.976     -17.462
  H      -58.396     -13.778     -21.166
  H      -56.032     -14.212     -19.630
  H      -57.132     -15.718     -18.142
  H      -58.565     -16.837     -20.619
  H      -60.366     -17.345     -19.040
  H      -58.878     -18.184     -18.538
  P      -55.152     -17.442     -18.307
  C      -53.356     -16.622     -20.041
  O      -53.840     -16.612     -18.710
  O      -54.785     -18.954     -18.673
  O      -55.623     -17.228     -16.908
  H      -54.806     -19.130     -19.630
  H      -52.479     -16.013     -20.106
  H      -54.108     -16.236     -20.697
  H      -53.115     -17.625     -20.325

 6  7  8  9  10  11  12  13  14  15  16  27  31  32  33  34  35 0
 6-311+G(2d,p)
 ****
 36  37 0
 6-311+G(2d,p)
 ****
 1  2  3  4  5  17  18  19  20  21  22  23  24  25 0
 3-21G
 ****
 26  28  29  30  38  39  40  41  42  43  44  45 0
 3-21G
 ****


