%nproc=1
%NoSave
%Mem=1900MB
#P OB98/GEN NMR

erre ene a

0 1
  C     -158.617    -101.096      40.725
  O     -158.515    -102.510      40.697
  P     -157.090    -103.229      40.640
  C     -157.551    -103.892      38.142
  O     -156.664    -103.382      39.111
  C     -156.757    -104.258      36.882
  O     -156.326    -103.064      36.200
  C     -155.516    -105.082      37.222
  O     -155.789    -106.468      37.105
  C     -154.498    -104.579      36.215
  O     -154.687    -105.225      34.943
  C     -154.875    -103.080      36.116
  N     -154.346    -102.161      37.142
  C     -152.970    -102.026      37.299
  O     -152.143    -102.610      36.607
  N     -152.566    -101.198      38.318
  C     -153.390    -100.480      39.135
  O     -153.037     -99.942      40.180
  C     -154.804    -100.453      38.743
  C     -155.213    -101.299      37.798
  O     -157.426    -104.730      41.083
  O     -156.027    -102.619      41.494
  H     -155.563    -104.959      34.613
  H     -157.214    -104.867      42.024
  H     -151.573    -101.205      38.528
  H     -155.472     -99.790      39.276
  H     -156.262    -101.326      37.517
  H     -154.592    -102.669      35.139
  H     -153.483    -104.813      36.530
  H     -155.162    -104.835      38.231
  H     -157.410    -104.818      36.200
  H     -158.318    -103.145      37.906
  H     -158.069    -104.772      38.533
  P     -154.690    -107.533      37.571
  C     -154.656    -108.687      35.282
  O     -153.911    -107.948      36.230
  O     -155.199    -108.668      38.396
  O     -153.633    -106.639      38.379
  H     -153.810    -106.703      39.340
  H     -154.080    -108.750      34.357
  H     -155.609    -108.195      35.073
  H     -154.835    -109.698      35.656
  H     -159.648    -100.813      40.762
  H     -158.167    -100.688      39.844
  H     -158.113    -100.719      41.590

 3  4  5  6  7  8  9  10  11  12  13  23  28  29  30  31  32 0
 6-311+G(2d,p)
 ****
 33  34 0
 6-311+G(2d,p)
 ****
 1  2  14  15  16  17  18  19  20  21  22  24  25  26  27 0
 3-21G
 ****
 35  36  37  38  39  40  41  42  43  44  45 0
 3-21G
 ****


