%nproc=1
%NoSave
%Mem=1900MB
#P OB98/GEN NMR

erre ene a

0 1
  C      -74.748     163.894    -116.123
  O      -74.972     162.509    -116.350
  P      -75.523     161.633    -115.122
  C      -74.310     159.552    -116.104
  O      -74.501     160.404    -114.974
  C      -72.946     158.872    -116.035
  O      -71.909     159.846    -115.825
  C      -72.801     157.860    -114.906
  O      -73.360     156.600    -115.229
  C      -71.285     157.758    -114.803
  O      -70.781     156.905    -115.841
  C      -70.853     159.207    -115.057
  N      -67.959     159.556    -110.856
  C      -67.988     158.646    -111.849
  N      -68.797     158.615    -112.932
  C      -69.668     159.644    -112.902
  C      -69.781     160.626    -111.933
  C      -68.859     160.571    -110.872
  N      -68.810     161.512    -109.866
  N      -70.789     161.510    -112.242
  C      -71.272     161.077    -113.391
  N      -70.621     159.957    -113.834
  O      -76.836     160.949    -115.727
  O      -75.811     162.400    -113.878
  H      -69.827     156.781    -115.670
  H      -77.447     160.696    -115.006
  H      -67.270     157.837    -111.775
  H      -72.087     161.539    -113.937
  H      -69.936     159.269    -115.658
  H      -70.950     157.340    -113.851
  H      -73.204     158.259    -113.962
  H      -72.764     158.388    -117.005
  H      -74.362     160.157    -117.016
  H      -68.015     161.501    -109.251
  H      -69.342     162.365    -109.992
  H      -75.110     158.808    -116.130
  P      -73.513     155.539    -114.032
  C      -73.901     153.737    -115.855
  O      -73.204     154.115    -114.683
  O      -75.090     155.518    -113.762
  O      -72.736     155.894    -112.804
  H      -75.278     155.253    -112.843
  H      -73.366     152.907    -116.332
  H      -73.959     154.567    -116.569
  H      -74.910     153.407    -115.601
  H      -74.384     164.348    -117.021
  H      -74.025     164.015    -115.344
  H      -75.666     164.361    -115.833

 3  4  5  6  7  8  9  10  11  12  22  25  29  30  31  32 0
 6-311+G(2d,p)
 ****
 33  36  37 0
 6-311+G(2d,p)
 ****
 1  2  13  14  15  16  17  18  19  20  21  23  24  26 0
 3-21G
 ****
 27  28  34  35  38  39  40  41  42  43  44  45  46  47  48 0
 3-21G
 ****


