%nproc=1
%NoSave
%Mem=1900MB
#P OB98/GEN NMR

erre ene a

0 1
  C       18.953     136.367      26.899
  O       19.711     136.376      25.709
  H       18.228     137.183      26.857
  H       19.610     136.525      27.759
  H       18.412     135.425      27.017
  P       20.619     135.105      25.363
  C       20.378     132.544      25.571
  O       19.717     133.800      25.601
  C       19.399     131.407      25.889
  O       18.977     131.523      27.272
  C       18.134     131.498      25.029
  O       17.536     130.223      24.816
  C       17.205     132.342      25.887
  O       15.826     132.155      25.570
  C       17.584     131.877      27.291
  N       14.203     134.021      30.446
  C       13.989     133.138      29.407
  N       12.703     132.777      29.180
  N       14.942     132.670      28.644
  C       16.166     133.172      28.939
  C       16.500     134.068      29.929
  C       15.441     134.551      30.789
  O       15.572     135.351      31.709
  N       17.844     134.349      29.917
  C       18.320     133.630      28.921
  N       17.344     132.879      28.312
  O       21.654     135.036      26.585
  O       21.330     135.158      24.045
  H       15.662     131.195      25.532
  H       22.452     134.542      26.327
  H       13.438     134.327      31.021
  H       19.358     133.604      28.611
  H       17.014     130.981      27.570
  H       17.437     133.395      25.709
  H       11.933     133.263      29.612
  H       18.314     131.970      24.066
  H       12.498     132.395      28.254
  H       19.902     130.439      25.791
  H       21.175     132.585      26.317
  H       20.850     132.386      24.600
  P       18.222     129.220      23.773
  C       20.771     128.609      24.148
  O       19.413     128.428      24.484
  O       18.969     130.191      22.747
  O       17.266     128.301      23.079
  H       18.577     130.112      21.857
  H       21.377     127.972      24.757
  H       21.047     129.629      24.314
  H       20.919     128.363      23.117

 6  7  8  9  10  11  12  13  14  15  26  29  33  34 0
 6-311+G(2d,p)
 ****
 36  38  39  40  41 0
 6-311+G(2d,p)
 ****
 1  2  3  4  5  16  17  18  19  20  21  22  23  24  25 0
 3-21G
 ****
 27  28  30  31  32  35  37  42  43  44  45  46  47 0
 3-21G
 ****
 48  49 0
 3-21G
 ****


