%nproc=1
%NoSave
%Mem=1900MB
#P OB98/GEN NMR

erre ene a

0 1
  C      951.487    1365.739    -722.697
  O      950.095    1365.996    -722.664
  H      951.952    1366.424    -723.398
  H      951.659    1364.719    -723.034
  H      951.924    1365.882    -721.704
  P      949.211    1365.093    -721.656
  C      947.207    1366.751    -721.355
  O      948.374    1366.145    -720.774
  C      947.112    1368.207    -720.886
  O      946.913    1368.268    -719.461
  C      948.360    1369.056    -721.248
  O      947.942    1370.327    -721.741
  C      949.065    1369.204    -719.919
  O      949.876    1370.375    -719.856
  C      947.877    1369.156    -718.920
  N      948.319    1368.699    -717.590
  C      949.183    1369.579    -716.881
  O      949.532    1370.659    -717.382
  N      949.651    1369.186    -715.649
  C      949.339    1368.021    -715.173
  N      949.852    1367.702    -713.962
  C      948.488    1367.069    -715.917
  C      948.015    1367.457    -717.082
  O      950.283    1364.513    -720.645
  O      948.361    1364.049    -722.319
  H      949.281    1371.146    -719.916
  H      949.921    1363.780    -720.095
  H      948.250    1366.082    -715.489
  H      947.396    1366.834    -717.706
  H      947.435    1370.172    -718.808
  H      949.726    1368.332    -719.749
  H      948.989    1368.575    -721.968
  H      946.194    1368.644    -721.346
  H      950.436    1368.379    -713.496
  H      946.321    1366.192    -721.011
  H      949.695    1366.782    -713.524
  H      947.271    1366.693    -722.444
  P      947.277    1370.309    -723.219
  C      944.825    1370.487    -722.309
  O      945.780    1369.720    -723.062
  O      948.064    1369.142    -723.944
  O      947.386    1371.588    -723.910
  H      948.768    1369.500    -724.503
  H      943.887    1369.973    -722.294
  H      944.698    1371.446    -722.766
  H      945.179    1370.613    -721.307

 6  7  8  9  10  11  12  13  14  15  16  26  30  31  32  33  35 0
 6-311+G(2d,p)
 ****
 37  38 0
 6-311+G(2d,p)
 ****
 1  2  3  4  5  17  18  19  20  21  22  23  24  25 0
 3-21G
 ****
 27  28  29  34  36  39  40  41  42  43  44  45  46 0
 3-21G
 ****


