%nproc=1
%NoSave
%Mem=1900MB
#P OB98/GEN NMR

erre ene a

0 1
  C      -25.254      10.106    -139.112
  O      -24.494      10.904    -138.224
  H      -26.208      10.605    -139.305
  H      -25.451       9.131    -138.657
  H      -24.724       9.975    -140.059
  P      -22.971      10.464    -137.998
  C      -21.757       8.576    -136.641
  O      -22.985       9.166    -137.046
  C      -21.890       7.056    -136.618
  O      -22.471       6.574    -137.846
  C      -20.567       6.315    -136.532
  O      -19.975       6.405    -135.254
  C      -21.009       4.904    -136.897
  O      -21.520       4.198    -135.761
  C      -22.131       5.169    -137.930
  N      -21.737       4.773    -139.268
  C      -22.249       3.544    -139.705
  O      -22.996       2.892    -138.975
  N      -21.872       3.076    -140.936
  C      -21.036       3.755    -141.656
  N      -20.676       3.218    -142.853
  C      -20.471       5.053    -141.233
  C      -20.860       5.499    -140.038
  O      -22.418      11.615    -137.037
  O      -22.181      10.280    -139.249
  H      -21.634       3.267    -136.044
  H      -22.990      11.797    -136.273
  H      -19.787       5.588    -141.876
  H      -20.494       6.442    -139.649
  H      -23.039       4.612    -137.661
  H      -20.179       4.312    -137.292
  H      -19.882       6.671    -137.313
  H      -22.555       6.783    -135.787
  H      -21.044       2.302    -143.079
  H      -21.460       8.946    -135.655
  H      -19.976       3.618    -143.459
  H      -20.989       8.882    -137.357
  P      -18.393       6.575    -135.080
  C      -16.295       5.179    -135.617
  O      -17.715       5.250    -135.687
  O      -17.936       6.922    -133.703
  O      -18.023       7.673    -136.185
  H      -18.242       7.424    -137.100
  H      -15.962       4.258    -136.049
  H      -15.986       5.225    -134.594
  H      -15.870       6.000    -136.156

 6  7  8  9  10  11  12  13  14  15  16  26  30  31  32  33  35 0
 6-311+G(2d,p)
 ****
 37  38 0
 6-311+G(2d,p)
 ****
 1  2  3  4  5  17  18  19  20  21  22  23  24  25 0
 3-21G
 ****
 27  28  29  34  36  39  40  41  42  43  44  45  46 0
 3-21G
 ****


