%nproc=1
%NoSave
%Mem=1900MB
#P OB98/GEN NMR

erre ene a

0 1
  C      113.145     -65.568     124.420
  O      111.940     -65.084     125.029
  P      111.757     -64.961     126.620
  C      112.405     -62.495     127.014
  O      111.353     -63.456     126.992
  C      111.886     -61.100     127.380
  O      112.984     -60.184     127.575
  C      111.002     -60.450     126.324
  O      109.702     -61.014     126.326
  C      111.069     -58.985     126.747
  O      110.136     -58.714     127.809
  C      112.521     -58.861     127.247
  N      113.393     -58.215     126.277
  C      113.252     -56.833     126.127
  O      112.384     -56.223     126.756
  N      114.082     -56.175     125.248
  C      114.923     -56.848     124.533
  N      115.725     -56.142     123.687
  C      115.044     -58.315     124.591
  C      114.258     -58.928     125.476
  O      112.912     -65.493     127.405
  O      110.426     -65.796     126.949
  H      110.406     -59.268     128.562
  H      110.505     -66.178     127.843
  H      115.738     -58.843     123.953
  H      114.287     -60.007     125.590
  H      112.556     -58.290     128.183
  H      110.829     -58.297     125.930
  H      111.465     -60.563     125.335
  H      111.347     -61.184     128.334
  H      115.620     -55.137     123.676
  H      112.857     -62.462     126.018
  H      116.414     -56.571     123.086
  H      113.162     -62.820     127.735
  P      108.873     -61.113     124.959
  C      109.425     -63.545     124.354
  O      108.422     -62.637     124.776
  O      109.523     -60.491     123.764
  O      107.489     -60.378     125.302
  H      107.148     -59.952     124.491
  H      109.132     -64.557     124.646
  H      110.393     -63.307     124.807
  H      109.517     -63.504     123.262
  H      113.035     -65.561     123.356
  H      113.336     -66.567     124.752
  H      113.963     -64.937     124.698

 3  4  5  6  7  8  9  10  11  12  13  23  27  28  29  30  32 0
 6-311+G(2d,p)
 ****
 34  35 0
 6-311+G(2d,p)
 ****
 1  2  14  15  16  17  18  19  20  21  22  24  25  26 0
 3-21G
 ****
 31  33  36  37  38  39  40  41  42  43  44  45  46 0
 3-21G
 ****


