%nproc=1
%NoSave
%Mem=1900MB
#P OB98/GEN NMR

erre ene a

0 1
  C      410.651     -26.387     -23.052
  O      411.717     -27.334     -23.131
  P      411.382     -28.883     -22.881
  C      410.061     -30.297     -21.173
  O      410.608     -29.021     -21.482
  C      410.425     -30.713     -19.736
  O      411.798     -31.184     -19.716
  C      410.354     -29.586     -18.701
  O      409.119     -29.351     -18.032
  C      411.331     -30.095     -17.640
  O      410.663     -31.026     -16.767
  C      412.394     -30.829     -18.452
  N      416.576     -28.859     -16.242
  C      415.567     -29.619     -15.754
  N      414.491     -30.101     -16.411
  C      414.518     -29.739     -17.706
  C      415.479     -28.970     -18.343
  C      416.551     -28.516     -17.553
  N      417.571     -27.731     -18.046
  N      415.164     -28.799     -19.675
  C      414.019     -29.439     -19.834
  N      413.595     -30.036     -18.676
  O      412.511     -29.835     -23.086
  O      410.207     -29.157     -23.943
  H      411.176     -31.045     -15.936
  H      410.317     -30.057     -24.310
  H      415.634     -29.873     -14.700
  H      413.467     -29.498     -20.762
  H      412.719     -31.761     -17.969
  H      411.714     -29.291     -17.004
  H      410.730     -28.642     -19.124
  H      409.773     -31.546     -19.428
  H      410.442     -31.041     -21.877
  H      418.275     -27.414     -17.398
  H      417.534     -27.418     -19.003
  H      408.978     -30.241     -21.332
  P      408.252     -28.038     -18.325
  C      408.621     -25.494     -17.809
  O      409.038     -26.831     -17.620
  O      406.809     -28.133     -17.952
  O      408.516     -27.779     -19.884
  H      409.426     -27.506     -20.093
  H      409.143     -24.860     -17.086
  H      407.541     -25.399     -17.650
  H      408.882     -25.168     -18.822
  H      411.032     -25.405     -23.241
  H      410.217     -26.419     -22.074
  H      409.906     -26.627     -23.781

 3  4  5  6  7  8  9  10  11  12  22  25  29  30  31  32 0
 6-311+G(2d,p)
 ****
 33  36  37 0
 6-311+G(2d,p)
 ****
 1  2  13  14  15  16  17  18  19  20  21  23  24  26 0
 3-21G
 ****
 27  28  34  35  38  39  40  41  42  43  44  45  46  47  48 0
 3-21G
 ****


