%nproc=1
%NoSave
%Mem=1900MB
#P OB98/GEN NMR

erre ene a

0 1
  C        1.581      44.742      92.637
  O        0.830      44.095      91.623
  P        1.437      44.040      90.142
  C        0.344      46.306      89.482
  O        1.539      45.546      89.600
  C        0.671      47.774      89.203
  O        1.698      48.226      90.138
  C        1.197      48.040      87.783
  O        0.734      49.338      87.386
  C        2.701      48.078      87.993
  O        3.394      48.736      86.944
  C        2.766      48.791      89.347
  N        4.063      48.643      90.007
  C        5.103      49.451      89.561
  O        4.995      50.274      88.651
  N        6.318      49.242      90.157
  C        6.611      48.269      91.068
  O        7.747      48.059      91.477
  C        5.472      47.445      91.503
  C        4.270      47.665      90.963
  O        0.247      43.404      89.282
  O        2.700      43.254      90.014
  H        3.149      48.296      86.108
  H        0.407      42.455      89.126
  H        7.081      49.829      89.855
  H        5.665      46.674      92.240
  H        3.418      47.059      91.249
  H        2.541      49.859      89.223
  H        3.085      47.053      88.061
  H        0.890      47.284      87.053
  H       -0.227      48.375      89.395
  H       -0.218      46.234      90.415
  H       -0.278      45.890      88.681
  P        0.605      49.642      85.812
  C        2.893      50.904      85.729
  O        2.095      49.839      85.260
  O        0.005      51.128      85.842
  O       -0.255      48.664      85.080
  H        0.438      51.692      86.504
  H        2.691      51.124      86.781
  H        2.698      51.795      85.129
  H        3.947      50.632      85.623
  H        1.046      44.695      93.562
  H        1.737      45.766      92.367
  H        2.527      44.254      92.747

 3  4  5  6  7  8  9  10  11  12  13  23  28  29  30  31  32 0
 6-311+G(2d,p)
 ****
 33  34 0
 6-311+G(2d,p)
 ****
 1  2  14  15  16  17  18  19  20  21  22  24  25  26 0
 3-21G
 ****
 27  35  36  37  38  39  40  41  42  43  44  45 0
 3-21G
 ****


