%nproc=1
%NoSave
%Mem=1900MB
#P OB98/GEN NMR

erre ene a

0 1
  C     -897.260     966.063     316.481
  O     -896.850     965.375     317.674
  P     -896.970     966.130     319.101
  C     -898.530     964.332     320.209
  O     -897.290     965.035     320.222
  C     -898.800     963.682     321.556
  O     -898.000     962.488     321.719
  C     -898.450     964.560     322.766
  O     -899.430     965.569     322.993
  C     -898.380     963.522     323.881
  O     -899.680     963.222     324.397
  C     -897.780     962.301     323.140
  N     -896.360     962.099     323.447
  C     -896.080     961.127     324.384
  O     -896.920     960.505     325.008
  N     -894.730     960.924     324.641
  C     -893.700     961.632     324.092
  O     -892.520     961.424     324.372
  C     -894.070     962.707     323.155
  C     -895.370     962.894     322.895
  O     -898.380     966.871     318.964
  O     -895.880     967.092     319.412
  H     -899.600     962.482     325.013
  H     -898.390     967.672     319.516
  H     -894.490     960.211     325.307
  H     -893.290     963.306     322.723
  H     -895.680     963.674     322.193
  H     -898.340     961.390     323.403
  H     -897.760     963.867     324.736
  H     -897.460     965.006     322.623
  H     -899.860     963.388     321.596
  H     -898.500     963.568     319.439
  H     -899.340     965.049     319.950
  P     -898.930     966.909     323.704
  C     -897.050     967.239     321.896
  O     -898.210     967.751     322.532
  O     -897.710     966.350     324.606
  O     -900.000     967.609     324.462
  H     -897.280     965.607     324.184
  H     -897.090     966.152     321.811
  H     -896.160     967.540     322.449
  H     -897.010     967.658     320.879
  H     -897.115     965.425     315.634
  H     -896.675     966.951     316.363
  H     -898.295     966.325     316.558

 3  4  5  6  7  8  9  10  11  12  13  23  28  29  30  31  32 0
 6-311+G(2d,p)
 ****
 33  34 0
 6-311+G(2d,p)
 ****
 1  2  14  15  16  17  18  19  20  21  22  24  25  26 0
 3-21G
 ****
 27  35  36  37  38  39  40  41  42  43  44  45 0
 3-21G
 ****


