%nproc=1
%NoSave
%Mem=1900MB
#P OB98/GEN NMR

erre ene a

0 1
  C      104.543    -506.193    -176.085
  O      105.790    -505.904    -175.479
  P      107.128    -506.225    -176.295
  C      107.667    -503.738    -176.831
  O      107.360    -505.028    -177.340
  C      109.085    -503.331    -177.242
  O      110.031    -504.348    -176.787
  C      109.277    -503.173    -178.755
  O      110.231    -502.120    -178.960
  C      109.895    -504.501    -179.150
  O      110.570    -504.457    -180.395
  C      110.799    -504.746    -177.936
  N      111.244    -506.136    -177.834
  C      112.603    -506.384    -177.990
  O      113.442    -505.512    -178.213
  N      112.976    -507.700    -177.951
  C      112.139    -508.773    -177.861
  O      112.526    -509.932    -177.947
  C      110.710    -508.451    -177.693
  C      110.337    -507.166    -177.689
  O      106.707    -507.461    -177.224
  O      108.315    -506.544    -175.449
  H      111.197    -503.714    -180.365
  H      107.024    -508.299    -176.839
  H      113.962    -507.901    -178.052
  H      110.018    -509.275    -177.599
  H      109.290    -506.905    -177.589
  H      111.675    -504.088    -177.982
  H      109.107    -505.260    -179.219
  H      108.353    -502.958    -179.298
  H      109.342    -502.398    -176.723
  H      107.600    -503.755    -175.743
  H      106.934    -503.014    -177.204
  P      109.825    -500.919    -179.948
  C      109.510    -499.077    -178.123
  O      108.922    -499.910    -179.097
  O      108.779    -501.665    -180.908
  O      110.984    -500.325    -180.679
  H      108.165    -502.239    -180.421
  H      110.513    -498.760    -178.415
  H      109.565    -499.615    -177.174
  H      108.885    -498.192    -177.988
  H      103.751    -505.924    -175.418
  H      104.486    -507.239    -176.302
  H      104.450    -505.635    -176.993

 3  4  5  6  7  8  9  10  11  12  13  23  28  29  30  31  32 0
 6-311+G(2d,p)
 ****
 33  34 0
 6-311+G(2d,p)
 ****
 1  2  14  15  16  17  18  19  20  21  22  24  25  26 0
 3-21G
 ****
 27  35  36  37  38  39  40  41  42  43  44  45 0
 3-21G
 ****


