%nproc=1
%NoSave
%Mem=1900MB
#P OB98/GEN NMR

erre ene a

0 1
  C     -283.221     -71.094     -37.470
  O     -283.296     -71.941     -38.601
  H     -282.240     -70.610     -37.420
  H     -283.992     -70.324     -37.557
  H     -283.399     -71.671     -36.557
  P     -282.168     -73.081     -38.710
  C     -279.628     -72.996     -39.228
  O     -280.902     -72.400     -39.428
  C     -278.597     -72.360     -40.149
  O     -278.820     -72.780     -41.511
  C     -278.629     -70.836     -40.188
  O     -277.983     -70.261     -39.061
  C     -277.856     -70.571     -41.475
  O     -276.441     -70.663     -41.218
  C     -278.306     -71.732     -42.374
  N     -280.166     -72.522     -47.098
  C     -279.114     -73.059     -46.443
  N     -278.672     -72.792     -45.196
  C     -279.450     -71.875     -44.600
  C     -280.555     -71.239     -45.143
  C     -280.909     -71.591     -46.456
  N     -281.975     -71.018     -47.123
  N     -281.108     -70.364     -44.230
  C     -280.354     -70.471     -43.153
  N     -279.331     -71.368     -43.333
  O     -282.745     -74.067     -39.842
  O     -281.871     -73.815     -37.446
  H     -275.993     -70.431     -42.050
  H     -282.502     -74.983     -39.614
  H     -278.547     -73.806     -46.995
  H     -280.508     -69.930     -42.231
  H     -277.460     -72.161     -42.926
  H     -278.049     -69.580     -41.894
  H     -279.655     -70.463     -40.299
  H     -277.604     -72.723     -39.846
  H     -279.692     -74.071     -39.440
  H     -282.298     -71.445     -47.975
  H     -282.530     -70.326     -46.627
  H     -279.339     -72.863     -38.180
  P     -278.711     -69.024     -38.343
  C     -279.713     -66.780     -39.189
  O     -278.876     -67.898     -39.476
  O     -277.561     -68.427     -37.394
  O     -279.941     -69.370     -37.571
  H     -277.967     -67.957     -36.641
  H     -279.726     -66.119     -40.030
  H     -279.334     -66.261     -38.333
  H     -280.707     -67.121     -38.988

 6  7  8  9  10  11  12  13  14  15  25  28  32  33  34  35 0
 6-311+G(2d,p)
 ****
 36  39  40 0
 6-311+G(2d,p)
 ****
 1  2  3  4  5  16  17  18  19  20  21  22  23  24 0
 3-21G
 ****
 26  27  29  30  31  37  38  41  42  43  44  45  46  47  48 0
 3-21G
 ****


