%nproc=1
%NoSave
%Mem=1900MB
#P OB98/GEN NMR

erre ene a

0 1
  C      -93.349      42.224    -104.429
  O      -94.414      41.459    -104.951
  H      -93.761      43.040    -103.829
  H      -92.773      42.654    -105.253
  H      -92.698      41.614    -103.798
  P      -94.061      40.003    -105.524
  C      -95.156      38.475    -103.735
  O      -93.954      39.024    -104.255
  C      -95.491      39.109    -102.385
  O      -95.873      40.500    -102.607
  C      -96.645      38.421    -101.637
  O      -96.364      38.446    -100.231
  C      -97.816      39.348    -101.903
  O      -98.837      39.228    -100.918
  C      -97.112      40.701    -101.904
  N     -101.705      42.720    -101.838
  C     -101.102      41.836    -100.967
  N     -101.853      41.363     -99.951
  N      -99.862      41.441    -101.085
  C      -99.216      42.004    -102.135
  C      -99.700      42.886    -103.069
  C     -101.081      43.303    -102.938
  O     -101.678      44.067    -103.689
  N      -98.747      43.173    -104.014
  C      -97.698      42.449    -103.661
  N      -97.935      41.722    -102.528
  O      -92.541      40.174    -105.997
  O      -94.937      39.522    -106.630
  H      -99.110      38.289    -100.875
  H      -92.513      40.390    -106.948
  H     -102.668      42.980    -101.712
  H      -96.762      42.402    -104.197
  H      -96.879      41.055    -100.891
  H      -98.253      39.129    -102.884
  H     -102.805      41.645     -99.776
  H      -96.832      37.392    -101.958
  H     -101.411      40.745     -99.281
  H      -94.584      39.122    -101.769
  H      -95.029      37.396    -103.600
  H      -95.968      38.646    -104.448
  P      -95.676      37.155     -99.578
  C      -93.405      37.902     -98.549
  O      -94.083      37.328     -99.657
  O      -95.972      36.005    -100.652
  O      -96.213      36.798     -98.232
  H      -96.107      35.154    -100.195
  H      -92.356      37.947     -98.757
  H      -93.570      37.301     -97.679
  H      -93.777      38.890     -98.376

 6  7  8  9  10  11  12  13  14  15  26  29  33  34 0
 6-311+G(2d,p)
 ****
 36  38  39  40  41 0
 6-311+G(2d,p)
 ****
 1  2  3  4  5  16  17  18  19  20  21  22  23  24  25 0
 3-21G
 ****
 27  28  30  31  32  35  37  42  43  44  45  46  47 0
 3-21G
 ****
 48  49 0
 3-21G
 ****


