%nproc=1
%NoSave
%Mem=1900MB
#P OB98/GEN NMR

erre ene a

0 1
  C      204.828     -81.978      29.641
  O      204.591     -80.874      28.794
  H      204.568     -82.894      29.105
  H      204.200     -81.906      30.533
  H      205.882     -82.024      29.929
  P      205.051     -79.429      29.318
  C      207.582     -79.578      28.758
  O      206.325     -79.005      28.434
  C      208.719     -78.695      28.240
  O      209.967     -79.146      28.826
  C      208.876     -78.725      26.717
  O      209.218     -77.411      26.266
  C      210.053     -79.658      26.496
  O      210.728     -79.409      25.263
  C      210.894     -79.400      27.753
  N      211.773     -80.527      28.050
  C      212.921     -80.653      27.263
  O      213.148     -79.840      26.362
  N      213.754     -81.721      27.469
  C      213.425     -82.634      28.329
  N      214.277     -83.687      28.468
  C      212.189     -82.580      29.133
  C      211.422     -81.505      28.952
  O      205.689     -79.740      30.752
  O      203.974     -78.400      29.385
  H      211.456     -80.061      25.174
  H      205.558     -78.993      31.366
  H      211.945     -83.378      29.819
  H      210.492     -81.380      29.493
  H      211.509     -78.498      27.627
  H      209.700     -80.696      26.482
  H      207.977     -79.065      26.197
  H      208.551     -77.671      28.594
  H      215.106     -83.698      27.885
  H      207.657     -80.563      28.286
  H      214.100     -84.475      29.072
  H      207.659     -79.699      29.843
  P      208.303     -76.786      25.108
  C      206.694     -75.715      26.846
  O      207.530     -75.518      25.713
  O      207.150     -77.879      24.918
  O      209.039     -76.531      23.833
  H      207.273     -78.349      24.072
  H      206.252     -74.783      27.129
  H      207.278     -76.094      27.659
  H      205.923     -76.416      26.603

 6  7  8  9  10  11  12  13  14  15  16  26  30  31  32  33  35 0
 6-311+G(2d,p)
 ****
 37  38 0
 6-311+G(2d,p)
 ****
 1  2  3  4  5  17  18  19  20  21  22  23  24  25 0
 3-21G
 ****
 27  28  29  34  36  39  40  41  42  43  44  45  46 0
 3-21G
 ****


