%nproc=1
%NoSave
%Mem=1900MB
#P OB98/GEN NMR

erre ene a

0 1
  C        2.391       8.864      92.412
  O        1.242       8.305      93.016
  H        2.126       9.225      91.416
  H        3.168       8.100      92.313
  H        2.769       9.705      93.002
  P        1.340       7.922      94.570
  C        0.387       5.519      94.268
  O        0.212       6.809      94.839
  C       -0.932       4.748      94.303
  O       -1.813       5.284      93.275
  C       -0.783       3.243      94.036
  O       -1.737       2.542      94.850
  C       -1.177       3.111      92.577
  O       -1.624       1.809      92.216
  C       -2.276       4.174      92.480
  N       -2.537       4.588      91.102
  C       -3.385       3.786      90.341
  O       -3.997       2.807      90.771
  N       -3.521       4.150      89.025
  C       -2.891       5.191      88.408
  O       -3.037       5.454      87.220
  C       -2.002       5.995      89.258
  C       -1.865       5.659      90.544
  O        0.757       9.223      95.299
  O        2.703       7.555      95.057
  H        1.472       9.860      95.484
  H       -2.357       1.573      92.822
  H       -4.131       3.579      88.461
  H       -1.475       6.825      88.800
  H       -1.199       6.220      91.195
  H       -3.204       3.810      92.936
  H       -0.329       3.367      91.937
  H        0.222       2.851      94.229
  H       -1.420       4.927      95.271
  H        1.141       4.968      94.840
  H        0.738       5.629      93.233
  P       -1.234       1.215      95.602
  C       -3.426      -0.196      95.313
  O       -2.559       0.522      96.182
  O       -0.516       1.844      96.883
  O       -0.367       0.353      94.744
  H       -0.956       2.646      97.214
  H       -4.250      -0.585      95.873
  H       -2.889      -1.004      94.861
  H       -3.791       0.460      94.551

 6  7  8  9  10  11  12  13  14  15  16  27  31  32  33  34  35 0
 6-311+G(2d,p)
 ****
 36  37 0
 6-311+G(2d,p)
 ****
 1  2  3  4  5  17  18  19  20  21  22  23  24  25 0
 3-21G
 ****
 26  28  29  30  38  39  40  41  42  43  44  45 0
 3-21G
 ****


