%nproc=1
%NoSave
%Mem=1900MB
#P OB98/GEN NMR

erre ene a

0 1
  C      -18.814     269.397     133.636
  O      -19.104     268.453     134.649
  H      -17.904     269.936     133.911
  H      -19.635     270.113     133.546
  H      -18.650     268.893     132.680
  P      -20.302     267.423     134.351
  C      -19.117     265.409     133.152
  O      -19.623     265.969     134.353
  C      -18.203     264.223     133.458
  O      -17.084     264.690     134.250
  C      -18.889     263.098     134.237
  O      -18.384     261.845     133.768
  C      -18.441     263.335     135.670
  O      -18.507     262.143     136.451
  C      -17.032     263.909     135.461
  N      -16.588     264.716     136.598
  C      -15.562     264.182     137.386
  O      -15.094     263.072     137.127
  N      -15.127     264.892     138.475
  C      -15.709     266.007     138.794
  N      -15.242     266.654     139.896
  C      -16.827     266.584     138.018
  C      -17.204     265.900     136.941
  O      -20.597     267.708     132.804
  O      -21.483     267.582     135.249
  H      -17.825     261.519     136.114
  H      -19.794     267.828     132.269
  H      -17.289     267.508     138.332
  H      -18.013     266.252     136.312
  H      -16.305     263.101     135.306
  H      -19.086     264.082     136.146
  H      -19.974     263.112     134.151
  H      -17.787     263.854     132.514
  H      -14.487     266.216     140.411
  H      -18.558     266.164     132.587
  H      -15.652     267.499     140.265
  H      -19.967     265.086     132.543
  P      -19.059     261.160     132.486
  C      -17.250     261.519     130.683
  O      -17.903     260.586     131.532
  O      -20.109     261.968     131.795
  O      -19.695     259.816     133.097
  H      -20.557     259.664     132.659
  H      -16.506     261.014     130.103
  H      -16.784     262.277     131.277
  H      -17.967     261.969     130.029

 6  7  8  9  10  11  12  13  14  15  16  26  30  31  32  33  35 0
 6-311+G(2d,p)
 ****
 37  38 0
 6-311+G(2d,p)
 ****
 1  2  3  4  5  17  18  19  20  21  22  23  24  25 0
 3-21G
 ****
 27  28  29  34  36  39  40  41  42  43  44  45  46 0
 3-21G
 ****


