%nproc=1
%NoSave
%Mem=1900MB
#P OB98/GEN NMR

erre ene a

0 1
  C      495.757    -528.517    -242.807
  O      496.711    -529.561    -242.806
  H      495.743    -528.056    -241.819
  H      494.767    -528.928    -243.019
  H      496.014    -527.755    -243.549
  P      497.137    -530.155    -244.237
  C      496.785    -532.664    -243.664
  O      497.712    -531.628    -243.964
  C      497.503    -534.000    -243.533
  O      498.151    -534.348    -244.777
  C      498.594    -534.026    -242.464
  O      498.049    -534.274    -241.170
  C      499.430    -535.205    -242.940
  O      498.766    -536.439    -242.591
  C      499.408    -535.012    -244.466
  N      503.341    -534.926    -247.670
  C      502.474    -535.960    -247.356
  N      502.690    -537.138    -247.980
  N      501.492    -535.850    -246.504
  C      501.405    -534.618    -245.939
  C      502.208    -533.521    -246.161
  C      503.280    -533.657    -247.116
  O      504.072    -532.769    -247.438
  N      501.816    -532.450    -245.405
  C      500.795    -532.906    -244.703
  N      500.506    -534.215    -244.991
  O      498.443    -529.298    -244.600
  O      496.102    -530.044    -245.301
  H      497.843    -536.358    -242.892
  H      498.201    -528.613    -245.251
  H      504.090    -535.070    -248.324
  H      500.228    -532.327    -243.990
  H      499.418    -535.962    -245.002
  H      500.419    -535.234    -242.480
  H      503.445    -537.298    -248.626
  H      499.199    -533.112    -242.478
  H      502.064    -537.905    -247.768
  H      496.747    -534.771    -243.332
  H      496.047    -532.720    -244.473
  H      496.273    -532.422    -242.725
  P      498.699    -533.514    -239.918
  C      499.044    -535.632    -238.465
  O      498.368    -534.395    -238.616
  O      497.753    -532.234    -239.757
  O      500.129    -533.120    -240.081
  H      498.249    -531.421    -239.988
  H      498.725    -536.104    -237.559
  H      500.099    -535.459    -238.425
  H      498.818    -536.266    -239.297

 6  7  8  9  10  11  12  13  14  15  26  29  33  34 0
 6-311+G(2d,p)
 ****
 36  38  39  40  41 0
 6-311+G(2d,p)
 ****
 1  2  3  4  5  16  17  18  19  20  21  22  23  24  25 0
 3-21G
 ****
 27  28  30  31  32  35  37  42  43  44  45  46  47 0
 3-21G
 ****
 48  49 0
 3-21G
 ****


