%nproc=1
%NoSave
%Mem=1900MB
#P OB98/GEN NMR

erre ene a

0 1
  C      104.379     330.830     136.993
  O      104.487     332.026     136.245
  H      104.337     329.987     136.300
  H      103.462     330.845     137.589
  H      105.247     330.711     137.648
  P      104.736     333.377     137.069
  C      106.079     335.587     136.618
  O      105.829     334.233     136.260
  C      107.403     336.050     136.010
  O      108.510     335.283     136.526
  C      107.494     335.851     134.508
  O      106.676     336.743     133.785
  C      108.986     336.066     134.291
  O      109.311     337.462     134.284
  C      109.577     335.372     135.544
  N      110.144     334.065     135.242
  C      111.438     334.073     134.705
  O      112.031     335.135     134.526
  N      112.011     332.873     134.361
  C      111.367     331.766     134.559
  N      111.987     330.613     134.186
  C      110.014     331.712     135.145
  C      109.466     332.887     135.456
  O      105.559     332.864     138.340
  O      103.506     334.156     137.400
  H      108.757     337.869     133.589
  H      106.349     332.346     138.111
  H      109.515     330.766     135.301
  H      108.477     332.939     135.890
  H      110.366     335.992     135.989
  H      109.323     335.655     133.339
  H      107.265     334.809     134.249
  H      107.555     337.101     136.287
  H      112.907     330.691     133.769
  H      106.089     335.708     137.705
  H      111.571     329.698     134.263
  H      105.255     336.190     136.225
  P      106.069     336.326     132.362
  C      104.553     337.610     130.723
  O      104.838     337.321     132.090
  O      105.743     334.880     132.210
  O      107.167     336.855     131.323
  H      107.326     337.817     131.357
  H      103.719     338.278     130.666
  H      104.318     336.702     130.208
  H      105.408     338.067     130.269

 6  7  8  9  10  11  12  13  14  15  16  26  30  31  32  33  35 0
 6-311+G(2d,p)
 ****
 37  38 0
 6-311+G(2d,p)
 ****
 1  2  3  4  5  17  18  19  20  21  22  23  24  25 0
 3-21G
 ****
 27  28  29  34  36  39  40  41  42  43  44  45  46 0
 3-21G
 ****


