%nproc=1
%NoSave
%Mem=1900MB
#P OB98/GEN NMR

erre ene a

0 1
  C      133.462      92.525      62.368
  O      132.983      91.544      63.266
  H      134.230      93.117      62.872
  H      132.648      93.189      62.065
  H      133.904      92.049      61.487
  P      131.822      90.579      62.717
  C      130.406      91.084      64.831
  O      130.462      91.079      63.412
  C      129.082      91.677      65.310
  O      129.024      93.092      65.021
  C      127.846      91.051      64.676
  O      127.483      89.850      65.333
  C      126.820      92.162      64.868
  O      126.273      92.152      66.202
  C      127.665      93.423      64.632
  N      126.060      97.119      61.591
  C      125.951      96.982      62.963
  N      125.268      97.952      63.609
  N      126.458      95.981      63.632
  C      127.086      95.074      62.846
  C      127.272      95.108      61.483
  C      126.734      96.236      60.757
  O      126.851      96.451      59.552
  N      127.977      94.014      61.051
  C      128.180      93.300      62.144
  N      127.644      93.897      63.257
  O      132.116      89.186      63.452
  O      131.769      90.420      61.239
  H      126.012      91.244      66.432
  H      131.827      88.455      62.874
  H      125.662      97.922      61.132
  H      128.708      92.359      62.182
  H      127.340      94.259      65.261
  H      125.976      92.053      64.184
  H      124.593      98.533      63.131
  H      128.004      90.883      63.604
  H      125.165      97.844      64.609
  H      129.049      91.567      66.404
  H      131.232      91.687      65.220
  H      130.510      90.056      65.200
  P      126.221      89.037      64.764
  C      124.966      88.860      67.035
  O      124.982      89.395      65.719
  O      126.553      87.518      65.149
  O      125.983      89.208      63.302
  H      126.002      86.915      64.622
  H      124.083      89.187      67.542
  H      125.830      89.199      67.568
  H      124.974      87.791      66.986

 6  7  8  9  10  11  12  13  14  15  26  29  33  34 0
 6-311+G(2d,p)
 ****
 36  38  39  40  41 0
 6-311+G(2d,p)
 ****
 1  2  3  4  5  16  17  18  19  20  21  22  23  24  25 0
 3-21G
 ****
 27  28  30  31  32  35  37  42  43  44  45  46  47 0
 3-21G
 ****
 48  49 0
 3-21G
 ****


