%nproc=1
%NoSave
%Mem=1900MB
#P OB98/GEN NMR

erre ene a

0 1
  C       41.349    -195.122     -18.164
  O       42.082    -196.252     -17.722
  P       43.683    -196.125     -17.676
  C       43.754    -197.818     -19.646
  O       44.263    -197.453     -18.368
  C       44.658    -198.846     -20.329
  O       44.042    -199.258     -21.574
  C       46.065    -198.331     -20.644
  O       46.980    -199.408     -20.444
  C       45.999    -198.009     -22.125
  O       47.290    -198.047     -22.731
  C       45.017    -199.081     -22.622
  N       44.383    -198.708     -23.883
  C       45.045    -199.083     -25.057
  O       46.146    -199.630     -24.996
  N       44.468    -198.784     -26.267
  C       43.381    -198.077     -26.301
  N       42.846    -197.809     -27.523
  C       42.721    -197.555     -25.089
  C       43.257    -197.924     -23.927
  O       44.015    -196.340     -16.127
  O       44.219    -194.830     -18.196
  H       47.190    -197.794     -23.676
  H       44.802    -195.826     -15.864
  H       41.836    -196.938     -25.175
  H       42.826    -197.607     -22.986
  H       45.532    -200.041     -22.762
  H       45.578    -197.006     -22.271
  H       46.354    -197.478     -20.023
  H       44.715    -199.733     -19.686
  H       43.327    -198.165     -28.340
  H       43.711    -196.927     -20.279
  H       42.004    -197.264     -27.648
  H       42.739    -198.208     -19.535
  P       48.053    -199.264     -19.259
  C       49.977    -198.424     -20.737
  O       49.477    -199.494     -19.960
  O       47.852    -200.652     -18.479
  O       47.932    -198.101     -18.334
  H       48.414    -200.663     -17.682
  H       51.001    -198.658     -21.039
  H       49.981    -197.498     -20.158
  H       49.366    -198.301     -21.638
  H       40.303    -195.346     -18.144
  H       41.642    -194.875     -19.163
  H       41.549    -194.292     -17.518

 3  4  5  6  7  8  9  10  11  12  13  21  23  27  28  29  30  32 0
 6-311+G(2d,p)
 ****
 34  35 0
 6-311+G(2d,p)
 ****
 1  2  14  15  16  17  18  19  20  22  24  25  26 0
 3-21G
 ****
 31  33  36  37  38  39  40  41  42  43  44  45  46 0
 3-21G
 ****


