%nproc=1
%NoSave
%Mem=1900MB
#P OB98/GEN NMR

erre ene a

0 1
  C     -449.909    -384.243     341.930
  O     -450.260    -382.980     342.468
  P     -451.556    -382.212     341.911
  C     -450.418    -380.979     339.922
  O     -451.025    -380.878     341.190
  C     -449.492    -379.779     339.654
  O     -450.297    -378.575     339.710
  C     -448.385    -379.585     340.683
  O     -447.376    -378.742     340.119
  C     -449.108    -378.844     341.790
  O     -448.208    -378.158     342.655
  C     -450.089    -377.945     340.997
  N     -451.372    -377.797     341.706
  C     -451.425    -376.849     342.722
  O     -450.481    -376.100     342.991
  N     -452.566    -376.845     343.483
  C     -453.608    -377.717     343.346
  O     -454.457    -377.907     344.210
  C     -453.601    -378.524     342.118
  C     -452.491    -378.549     341.372
  O     -452.240    -381.669     343.253
  O     -452.485    -383.043     341.104
  H     -447.799    -377.433     342.116
  H     -452.950    -382.279     343.536
  H     -452.543    -376.254     344.310
  H     -454.476    -379.120     341.892
  H     -452.441    -379.179     340.492
  H     -449.674    -376.947     340.835
  H     -449.664    -379.566     342.398
  H     -447.933    -380.520     341.039
  H     -449.073    -379.861     338.648
  H     -451.195    -381.043     339.151
  H     -449.830    -381.902     339.853
  P     -446.505    -379.305     338.894
  C     -444.281    -378.715     340.032
  O     -445.121    -378.504     338.916
  O     -447.195    -379.376     337.577
  O     -446.070    -380.761     339.416
  H     -445.792    -381.314     338.659
  H     -443.242    -378.574     339.725
  H     -444.392    -379.728     340.433
  H     -444.518    -377.983     340.810
  H     -449.026    -384.604     342.415
  H     -449.725    -384.145     340.881
  H     -450.711    -384.933     342.088

 3  4  5  6  7  8  9  10  11  12  13  23  28  29  30  31  32 0
 6-311+G(2d,p)
 ****
 33  34 0
 6-311+G(2d,p)
 ****
 1  2  14  15  16  17  18  19  20  21  22  24  25  26  27 0
 3-21G
 ****
 35  36  37  38  39  40  41  42  43  44  45 0
 3-21G
 ****


