%nproc=1
%NoSave
%Mem=1900MB
#P OB98/GEN NMR

erre ene a

0 1
  C      300.263    -388.824     243.455
  O      298.915    -388.402     243.402
  H      300.682    -388.786     242.447
  H      300.326    -389.851     243.824
  H      300.839    -388.160     244.102
  P      298.079    -388.480     244.769
  C      297.229    -390.383     246.322
  O      297.950    -390.033     245.146
  C      296.718    -391.813     246.198
  O      297.817    -392.705     245.887
  C      296.104    -392.366     247.478
  O      294.778    -391.912     247.691
  C      296.165    -393.859     247.207
  O      295.039    -394.305     246.437
  C      297.475    -394.002     246.411
  N      298.543    -394.563     247.231
  C      298.342    -395.864     247.684
  O      297.334    -396.521     247.421
  N      299.324    -396.377     248.487
  C      300.436    -395.716     248.912
  O      301.252    -396.218     249.676
  C      300.593    -394.339     248.415
  C      299.652    -393.831     247.612
  O      296.600    -388.070     244.313
  O      298.588    -387.608     245.868
  H      296.396    -387.170     244.625
  H      294.346    -394.544     247.083
  H      299.196    -397.318     248.821
  H      301.467    -393.785     248.734
  H      299.737    -392.814     247.242
  H      297.328    -394.660     245.547
  H      296.164    -394.425     248.134
  H      296.743    -392.134     248.338
  H      295.994    -391.854     245.373
  H      296.375    -389.710     246.448
  H      297.891    -390.274     247.190
  P      294.297    -391.695     249.205
  C      293.824    -393.357     251.191
  O      294.090    -393.165     249.812
  O      292.815    -391.139     248.967
  O      295.195    -390.793     249.984
  H      292.440    -391.457     248.126
  H      293.719    -394.403     251.392
  H      292.918    -392.851     251.453
  H      294.633    -392.962     251.769

 6  7  8  9  10  11  12  13  14  15  16  27  31  32  33  34  35 0
 6-311+G(2d,p)
 ****
 36  37 0
 6-311+G(2d,p)
 ****
 1  2  3  4  5  17  18  19  20  21  22  23  24  25 0
 3-21G
 ****
 26  28  29  30  38  39  40  41  42  43  44  45 0
 3-21G
 ****


