%nproc=1
%NoSave
%Mem=1900MB
#P OB98/GEN NMR

erre ene a

0 1
  C      238.309    -201.552     182.816
  O      239.533    -201.949     182.230
  H      237.516    -201.645     182.068
  H      238.353    -200.512     183.151
  H      238.068    -202.206     183.660
  P      240.887    -201.661     183.044
  C      242.007    -199.517     183.957
  O      241.059    -200.062     183.037
  C      241.801    -198.009     184.128
  O      240.497    -197.745     184.683
  C      242.782    -197.363     185.094
  O      244.112    -197.313     184.622
  C      242.067    -196.071     185.472
  O      242.305    -195.003     184.561
  C      240.582    -196.498     185.401
  N      239.974    -196.589     186.725
  C      239.489    -195.397     187.253
  O      239.574    -194.312     186.674
  N      238.938    -195.477     188.502
  C      238.871    -196.602     189.276
  O      238.399    -196.601     190.406
  C      239.423    -197.828     188.674
  C      239.939    -197.768     187.444
  O      242.101    -202.401     182.569
  O      240.493    -201.977     184.562
  H      241.755    -194.250     184.851
  H      241.298    -202.095     185.121
  H      238.572    -194.625     188.898
  H      239.389    -198.737     189.259
  H      240.357    -198.660     186.980
  H      240.006    -195.766     184.819
  H      242.373    -195.720     186.460
  H      242.811    -197.975     186.007
  H      241.851    -197.539     183.140
  H      243.007    -199.700     183.550
  H      241.918    -200.029     184.923
  P      245.346    -196.846     185.521
  C      246.052    -194.564     186.545
  O      245.438    -195.239     185.456
  O      246.607    -197.639     185.400
  O      244.764    -197.092     187.008
  H      245.512    -197.366     187.575
  H      246.041    -193.510     186.363
  H      247.064    -194.898     186.647
  H      245.514    -194.777     187.445

 6  7  8  9  10  11  12  13  14  15  16  26  31  32  33  34  35 0
 6-311+G(2d,p)
 ****
 36  37 0
 6-311+G(2d,p)
 ****
 1  2  3  4  5  17  18  19  20  21  22  23  24  25 0
 3-21G
 ****
 27  28  29  30  38  39  40  41  42  43  44  45 0
 3-21G
 ****


