%nproc=1
%NoSave
%Mem=1900MB
#P OB98/GEN NMR

erre ene a

0 1
  C       69.884     461.076     619.351
  O       68.824     460.180     619.038
  P       68.092     459.435     620.259
  C       66.895     461.730     620.760
  O       67.598     460.598     621.249
  C       65.919     462.240     621.823
  O       64.811     461.324     621.957
  C       66.517     462.367     623.221
  O       67.331     463.520     623.349
  C       65.253     462.376     624.080
  O       64.662     463.687     624.079
  C       64.348     461.384     623.328
  N       64.315     460.056     623.936
  C       63.112     459.360     623.837
  O       62.119     459.816     623.273
  N       63.087     458.124     624.431
  C       64.102     457.560     625.149
  O       64.008     456.467     625.696
  C       65.337     458.353     625.249
  C       65.386     459.546     624.647
  O       69.348     458.774     620.997
  O       67.042     458.474     619.813
  H       70.168     459.282     620.840
  H       64.533     463.931     623.144
  H       62.231     457.596     624.352
  H       66.159     457.938     625.817
  H       66.281     460.145     624.715
  H       63.320     461.767     623.282
  H       65.448     462.109     625.123
  H       67.109     461.470     623.455
  H       65.518     463.205     621.495
  H       66.333     461.443     619.859
  H       67.613     462.510     620.493
  P       68.401     463.516     624.546
  C       69.888     461.880     623.147
  O       69.258     462.178     624.378
  O       67.454     463.226     625.809
  O       69.193     464.784     624.645
  H       66.787     462.548     625.629
  H       70.684     461.156     623.329
  H       70.318     462.777     622.695
  H       69.155     461.441     622.466
  H       70.275     461.496     618.448
  H       70.660     460.546     619.863
  H       69.515     461.860     619.978

 3  4  5  6  7  8  9  10  11  12  13  24  28  29  30  31  32 0
 6-311+G(2d,p)
 ****
 33  34 0
 6-311+G(2d,p)
 ****
 1  2  14  15  16  17  18  19  20  21  22  23  25  26  27 0
 3-21G
 ****
 35  36  37  38  39  40  41  42  43  44  45 0
 3-21G
 ****


