%nproc=1
%NoSave
%Mem=1900MB
#P OB98/GEN NMR

erre ene a

0 1
  C     -634.256     850.382    -181.628
  O     -634.414     849.249    -182.495
  P     -634.901     847.867    -181.815
  C     -632.721     846.629    -182.532
  O     -633.583     847.032    -181.460
  C     -631.601     845.737    -182.012
  O     -632.075     844.400    -181.730
  C     -630.442     845.555    -183.002
  O     -629.564     846.666    -183.002
  C     -629.771     844.323    -182.435
  O     -628.886     844.693    -181.355
  C     -630.960     843.504    -181.885
  N     -630.488     838.562    -182.910
  C     -629.916     839.314    -181.906
  N     -629.122     838.647    -181.036
  N     -630.101     840.595    -181.758
  C     -630.936     841.118    -182.692
  C     -631.569     840.476    -183.733
  C     -631.328     839.068    -183.894
  O     -631.789     838.354    -184.788
  N     -632.350     841.352    -184.457
  C     -632.209     842.493    -183.848
  N     -631.355     842.422    -182.762
  O     -635.538     847.069    -183.034
  O     -635.873     848.056    -180.690
  H     -629.421     845.181    -180.700
  H     -636.224     846.447    -182.713
  H     -630.309     837.569    -182.971
  H     -632.706     843.420    -184.128
  H     -630.740     843.083    -180.901
  H     -629.154     843.792    -183.158
  H     -629.004     837.649    -181.028
  H     -630.830     845.336    -184.015
  H     -628.727     839.184    -180.258
  H     -631.212     846.180    -181.088
  H     -632.294     847.515    -183.013
  H     -633.326     846.123    -183.293
  P     -629.830     847.810    -184.099
  C     -628.197     846.468    -185.621
  O     -629.441     847.148    -185.509
  O     -628.635     848.834    -183.817
  O     -631.157     848.455    -184.010
  H     -628.913     849.748    -184.087
  H     -628.009     845.844    -184.751
  H     -627.401     847.201    -185.756
  H     -628.234     845.839    -186.510
  H     -633.932     851.226    -182.200
  H     -633.527     850.158    -180.878
  H     -635.192     850.606    -181.160

 3  4  5  6  7  8  9  10  11  12  23  26  30  31  33  0
 6-311+G(2d,p)
 ****
 35  36  37  38 0
 6-311+G(2d,p)
 ****
 1  2  13  14  15  16  17  18  19  20  21  22  24  25  27  28  29 0
 3-21G
 ****
 32  34  39  40  41  42  43  44  45  46  47  48  49 0
 3-21G
 ****


