%nproc=1
%NoSave
%Mem=1900MB
#P OB98/GEN NMR

erre ene a

0 1
  C      338.396    -320.288     -72.636
  O      337.151    -320.483     -71.965
  P      336.344    -319.214     -71.419
  C      337.205    -319.169     -68.983
  O      337.179    -318.515     -70.245
  C      338.251    -318.511     -68.073
  O      339.595    -318.762     -68.553
  C      338.130    -316.994     -68.029
  O      336.997    -316.463     -67.377
  C      339.497    -316.578     -67.513
  O      339.571    -316.664     -66.088
  C      340.417    -317.635     -68.166
  N      341.162    -317.109     -69.308
  C      342.257    -316.303     -69.003
  O      342.571    -315.998     -67.859
  N      342.957    -315.820     -70.078
  C      342.662    -316.034     -71.394
  O      343.313    -315.556     -72.317
  C      341.480    -316.875     -71.652
  C      340.796    -317.365     -70.615
  O      334.897    -319.447     -71.124
  O      336.496    -318.160     -72.628
  H      338.840    -316.126     -65.725
  H      335.633    -317.709     -72.739
  H      343.758    -315.238     -69.877
  H      341.211    -317.062     -72.684
  H      339.922    -317.988     -70.787
  H      341.142    -318.015     -67.440
  H      339.736    -315.543     -67.783
  H      338.063    -316.633     -69.069
  H      338.169    -318.949     -67.077
  H      337.429    -320.225     -69.115
  H      336.207    -319.118     -68.536
  P      335.813    -315.707     -68.142
  C      336.252    -313.341     -67.170
  O      336.223    -314.166     -68.315
  O      334.415    -315.996     -67.698
  O      335.999    -316.264     -69.639
  H      335.118    -316.325     -70.060
  H      336.531    -312.328     -67.478
  H      336.993    -313.711     -66.458
  H      335.262    -313.304     -66.702
  H      338.794    -321.236     -72.931
  H      339.084    -319.802     -71.977
  H      338.242    -319.680     -73.503

 3  4  5  6  7  8  9  10  11  12  13  23  28  29  30  31  32 0
 6-311+G(2d,p)
 ****
 33  34 0
 6-311+G(2d,p)
 ****
 1  2  14  15  16  17  18  19  20  21  22  24  25  26  27 0
 3-21G
 ****
 35  36  37  38  39  40  41  42  43  44  45 0
 3-21G
 ****


