%nproc=1
%NoSave
%Mem=1900MB
#P OB98/GEN NMR

erre ene a

0 1
  C       55.247     281.015    -275.833
  O       53.862     281.128    -276.156
  P       53.426     282.004    -277.426
  C       51.935     283.955    -276.670
  O       53.265     283.534    -276.969
  C       51.725     285.455    -276.967
  O       51.937     285.740    -278.379
  C       50.322     285.968    -276.611
  O       50.472     287.319    -276.143
  C       49.609     285.952    -277.956
  O       48.447     286.762    -277.969
  C       50.753     286.400    -278.871
  N       50.501     286.087    -280.272
  C       49.605     286.903    -280.958
  O       48.983     287.783    -280.346
  N       49.414     286.691    -282.297
  C       49.956     285.657    -282.868
  N       49.758     285.486    -284.201
  C       50.762     284.661    -282.129
  C       51.016     284.952    -280.857
  O       52.288     281.461    -278.221
  O       54.775     282.047    -278.309
  H       48.695     287.674    -277.706
  H       54.529     282.043    -279.257
  H       51.128     283.775    -282.623
  H       51.606     284.294    -280.238
  H       50.926     287.481    -278.781
  H       49.303     284.923    -278.195
  H       49.818     285.377    -275.833
  H       52.469     286.022    -276.403
  H       49.177     286.159    -284.691
  H       51.730     283.770    -275.617
  H       50.187     284.738    -284.726
  H       51.227     283.341    -277.233
  P       50.868     287.560    -274.602
  C       48.761     288.816    -273.740
  O       49.515     287.619    -273.744
  O       51.318     289.098    -274.622
  O       51.971     286.709    -274.061
  H       51.937     289.259    -273.882
  H       47.758     288.600    -273.353
  H       48.668     289.234    -274.744
  H       49.238     289.559    -273.083
  H       55.362     280.400    -274.965
  H       55.648     281.987    -275.637
  H       55.770     280.572    -276.655

 3  4  5  6  7  8  9  10  11  12  13  23  27  28  29  30  32 0
 6-311+G(2d,p)
 ****
 34  35 0
 6-311+G(2d,p)
 ****
 1  2  14  15  16  17  18  19  20  21  22  24  25  26 0
 3-21G
 ****
 31  33  36  37  38  39  40  41  42  43  44  45  46 0
 3-21G
 ****


