%nproc=1
%NoSave
%Mem=1900MB
#P OB98/GEN NMR

erre ene a

0 1
  C      667.123    -485.737     256.158
  O      665.743    -485.573     255.915
  P      664.739    -485.285     257.131
  C      664.272    -486.544     259.332
  O      664.616    -486.657     257.946
  C      663.356    -487.703     259.738
  O      664.067    -488.964     259.697
  C      662.844    -487.600     261.177
  O      661.968    -486.536     261.479
  C      662.334    -489.013     261.400
  O      661.028    -489.181     260.834
  C      663.371    -489.851     260.609
  N      664.307    -490.541     261.514
  C      663.753    -491.531     262.318
  O      662.570    -491.845     262.294
  N      664.628    -492.145     263.175
  C      665.946    -491.844     263.333
  O      666.659    -492.416     264.160
  C      666.463    -490.769     262.479
  C      665.634    -490.166     261.611
  O      663.429    -484.685     256.741
  O      665.603    -484.376     258.120
  H      660.440    -488.521     261.241
  H      666.421    -484.793     258.454
  H      664.242    -492.867     263.771
  H      667.514    -490.509     262.572
  H      665.992    -489.379     260.958
  H      662.869    -490.611     260.009
  H      662.250    -489.250     262.468
  H      663.709    -487.466     261.832
  H      662.529    -487.756     259.015
  H      663.739    -485.592     259.482
  H      665.180    -486.520     259.931
  P      662.205    -485.530     262.703
  C      662.661    -485.766     265.250
  O      662.219    -486.386     264.058
  O      661.404    -484.268     262.705
  O      663.752    -485.162     262.533
  H      663.905    -484.257     262.860
  H      662.649    -486.502     266.060
  H      662.002    -484.942     265.523
  H      663.688    -485.395     265.127
  H      667.629    -485.920     255.233
  H      667.273    -486.567     256.817
  H      667.514    -484.849     256.609

 3  4  5  6  7  8  9  10  11  12  13  23  28  29  30  31  32 0
 6-311+G(2d,p)
 ****
 33  34 0
 6-311+G(2d,p)
 ****
 1  2  14  15  16  17  18  19  20  21  22  24  25  26  27 0
 3-21G
 ****
 35  36  37  38  39  40  41  42  43  44  45 0
 3-21G
 ****


