%nproc=1
%NoSave
%Mem=1900MB
#P OB98/GEN NMR

erre ene a

0 1
  C     -175.796     413.114    -395.190
  O     -176.049     412.643    -393.874
  P     -175.316     413.401    -392.661
  C     -177.548     413.906    -391.426
  O     -176.401     414.432    -392.087
  C     -177.463     414.150    -389.926
  O     -177.339     415.557    -389.671
  C     -178.688     413.694    -389.140
  O     -178.656     412.302    -388.880
  C     -178.520     414.496    -387.859
  O     -177.593     413.826    -386.982
  C     -177.924     415.820    -388.365
  N     -180.325     419.580    -385.961
  C     -179.364     418.698    -385.496
  N     -178.968     418.865    -384.211
  N     -178.837     417.749    -386.222
  C     -179.307     417.724    -387.496
  C     -180.249     418.537    -388.075
  C     -180.861     419.556    -387.244
  O     -181.754     420.322    -387.585
  N     -180.444     418.225    -389.398
  C     -179.586     417.243    -389.622
  N     -178.893     416.896    -388.497
  O     -174.265     414.350    -393.408
  O     -174.656     412.516    -391.657
  H     -177.972     412.951    -386.783
  H     -173.518     414.554    -392.811
  H     -180.682     420.301    -385.364
  H     -179.441     416.777    -390.589
  H     -177.109     416.167    -387.716
  H     -179.456     414.607    -387.302
  H     -179.243     419.654    -383.652
  H     -179.610     413.996    -389.648
  H     -178.238     418.246    -383.870
  H     -176.553     413.657    -389.547
  H     -177.599     412.827    -391.614
  H     -178.440     414.379    -391.844
  P     -180.082     411.549    -388.844
  C     -179.591     410.550    -391.198
  O     -180.469     411.311    -390.383
  O     -181.088     412.697    -388.372
  O     -180.126     410.351    -387.962
  H     -181.874     412.302    -387.930
  H     -179.131     409.731    -390.637
  H     -178.808     411.206    -391.597
  H     -180.159     410.129    -392.029
  H     -176.345     412.522    -395.892
  H     -174.750     413.039    -395.401
  H     -176.103     414.136    -395.268

 3  4  5  6  7  8  9  10  11  12  23  26  30  31  33  0
 6-311+G(2d,p)
 ****
 35  36  37  38 0
 6-311+G(2d,p)
 ****
 1  2  13  14  15  16  17  18  19  20  21  22  24  25  27  28  29 0
 3-21G
 ****
 32  34  39  40  41  42  43  44  45  46  47  48  49 0
 3-21G
 ****


