%nproc=1
%NoSave
%Mem=1900MB
#P OB98/GEN NMR

erre ene a

0 1
  C     -894.390    -687.335    -898.130
  O     -893.140    -687.761    -897.600
  P     -892.670    -689.258    -898.000
  C     -893.840    -691.606    -898.120
  O     -893.930    -690.209    -897.740
  C     -893.550    -692.471    -896.920
  O     -894.670    -692.551    -896.040
  C     -893.220    -693.907    -897.260
  O     -891.860    -694.031    -897.760
  C     -893.430    -694.600    -895.940
  O     -892.240    -694.527    -895.110
  C     -894.590    -693.780    -895.320
  N     -895.860    -694.512    -895.320
  C     -896.030    -695.348    -894.190
  O     -895.150    -695.467    -893.330
  N     -897.200    -696.080    -894.120
  C     -898.100    -695.949    -895.070
  N     -899.260    -696.711    -894.950
  C     -897.910    -695.102    -896.250
  C     -896.780    -694.398    -896.310
  O     -891.650    -689.646    -896.840
  O     -892.040    -689.366    -899.370
  H     -891.550    -695.038    -895.600
  H     -890.970    -690.293    -897.130
  H     -898.700    -695.061    -897.010
  H     -896.550    -693.742    -897.140
  H     -894.350    -693.503    -894.300
  H     -893.690    -695.673    -896.070
  H     -893.910    -694.315    -898.040
  H     -892.710    -692.025    -896.340
  H     -899.300    -697.295    -894.120
  H     -893.050    -691.720    -898.870
  H     -900.000    -696.677    -895.630
  H     -894.810    -691.890    -898.610
  P     -891.540    -695.212    -898.780
  C     -891.300    -697.761    -898.590
  O     -891.420    -696.507    -897.860
  O     -890.020    -694.870    -899.160
  O     -892.420    -695.326    -900.000
  H     -889.700    -695.501    -899.880
  H     -891.020    -698.534    -897.820
  H     -890.530    -697.697    -899.350
  H     -892.260    -697.976    -899.050
  H     -894.595    -686.338    -897.801
  H     -895.164    -687.990    -897.788
  H     -894.350    -687.357    -899.199

 3  4  5  6  7  8  9  10  11  12  13  21  23  27  28  29  30  32 0
 6-311+G(2d,p)
 ****
 34  35 0
 6-311+G(2d,p)
 ****
 1  2  14  15  16  17  18  19  20  22  24  25  26 0
 3-21G
 ****
 31  33  36  37  38  39  40  41  42  43  44  45  46 0
 3-21G
 ****


