%nproc=1
%NoSave
%Mem=1900MB
#P OB98/GEN NMR

erre ene a

0 1
  C     -340.824     561.539    -318.793
  O     -341.353     562.363    -317.768
  P     -342.659     561.990    -316.928
  C     -342.312     563.726    -315.021
  O     -343.122     563.297    -316.106
  C     -342.891     564.949    -314.286
  O     -342.693     566.139    -315.088
  C     -344.413     564.788    -314.125
  O     -344.939     564.032    -313.047
  C     -344.977     566.210    -314.256
  O     -345.231     566.810    -312.976
  C     -343.858     566.961    -314.983
  N     -347.088     569.717    -317.787
  C     -346.860     569.761    -316.418
  N     -347.742     570.504    -315.698
  N     -345.877     569.124    -315.826
  C     -345.150     568.363    -316.671
  C     -345.264     568.241    -318.037
  C     -346.324     568.982    -318.684
  O     -346.611     568.908    -319.878
  N     -344.393     567.307    -318.557
  C     -343.770     566.826    -317.493
  N     -344.223     567.409    -316.328
  O     -342.649     560.662    -316.219
  O     -343.777     561.902    -318.089
  H     -345.454     567.749    -313.128
  H     -344.410     561.203    -317.839
  H     -347.909     570.169    -318.186
  H     -343.027     566.051    -317.515
  H     -343.561     567.859    -314.418
  H     -345.932     566.197    -314.795
  H     -348.575     570.879    -316.102
  H     -344.775     564.262    -315.023
  H     -347.701     570.418    -314.687
  H     -342.368     565.132    -313.343
  H     -341.321     563.953    -315.420
  H     -342.187     562.907    -314.310
  P     -346.399     563.389    -312.971
  C     -345.300     561.415    -311.770
  O     -346.411     562.300    -311.795
  O     -346.504     562.502    -314.297
  O     -347.534     564.379    -312.922
  H     -347.461     562.348    -314.522
  H     -345.536     560.550    -311.150
  H     -344.439     561.937    -311.330
  H     -345.049     561.078    -312.773
  H     -339.951     562.000    -319.206
  H     -341.557     561.411    -319.562
  H     -340.564     560.585    -318.385

 3  4  5  6  7  8  9  10  11  12  23  26  30  31 0
 6-311+G(2d,p)
 ****
 33  35  36  37  38 0
 6-311+G(2d,p)
 ****
 1  2  13  14  15  16  17  18  19  20  21  22  24  25 0
 3-21G
 ****
 27  28  29  32  34  39  40  41  42  43  44  45  46  47  48  49 0
 3-21G
 ****


