%nproc=1
%NoSave
%Mem=1900MB
#P OB98/GEN NMR

erre ene a

0 1
  C        7.718     -29.391      -9.107
  O        8.548     -30.171      -8.245
  P       10.014     -29.586      -7.953
  C       10.198     -28.506      -5.602
  O       10.284     -29.693      -6.376
  C       11.311     -28.461      -4.553
  O       11.477     -27.149      -3.984
  C       11.070     -29.398      -3.378
  O       11.418     -30.725      -3.735
  C       11.985     -28.805      -2.315
  O       13.339     -29.278      -2.466
  C       11.909     -27.297      -2.607
  N       11.405     -25.136       1.948
  C       12.410     -25.949       1.461
  N       13.438     -26.201       2.297
  N       12.406     -26.465       0.260
  C       11.316     -26.127      -0.468
  C       10.271     -25.309      -0.105
  C       10.285     -24.746       1.228
  O        9.431     -24.004       1.698
  N        9.378     -25.150      -1.134
  C        9.820     -25.972      -2.069
  N       11.026     -26.539      -1.740
  O        9.843     -28.016      -8.213
  O       11.073     -30.175      -8.824
  H       13.654     -29.061      -3.362
  H       10.320     -27.761      -9.025
  H       11.454     -24.773       2.885
  H        9.322     -26.170      -3.005
  H       12.895     -26.823      -2.528
  H       11.673     -29.085      -1.306
  H       13.506     -25.834       3.234
  H       10.025     -29.335      -3.052
  H       14.189     -26.788       1.956
  H       12.248     -28.732      -5.057
  H        9.225     -28.450      -5.110
  H       10.260     -27.642      -6.273
  P       10.308     -31.866      -3.550
  C        8.389     -31.583      -5.273
  O        9.656     -32.139      -4.984
  O        9.150     -31.116      -2.736
  O       10.782     -33.077      -2.818
  H        8.827     -31.695      -2.020
  H        8.323     -31.396      -6.347
  H        8.228     -30.643      -4.738
  H        7.611     -32.296      -4.989
  H        6.772     -29.877      -9.227
  H        8.191     -29.290     -10.061
  H        7.569     -28.422      -8.678

 3  4  5  6  7  8  9  10  11  12  23  26  30  31 0
 6-311+G(2d,p)
 ****
 33  35  36  37  38 0
 6-311+G(2d,p)
 ****
 1  2  13  14  15  16  17  18  19  20  21  22  24  25 0
 3-21G
 ****
 27  28  29  32  34  39  40  41  42  43  44  45  46  47  48  49 0
 3-21G
 ****


