%nproc=1
%NoSave
%Mem=1900MB
#P OB98/GEN NMR

erre ene a

0 1
  C     -455.101    -908.022    -888.410
  O     -454.824    -906.641    -888.340
  P     -455.852    -905.560    -888.960
  C     -456.759    -904.921    -891.280
  O     -455.761    -905.656    -890.560
  C     -456.097    -903.976    -892.260
  O     -455.575    -904.690    -893.420
  C     -457.040    -902.929    -892.850
  O     -457.344    -901.903    -891.920
  C     -456.236    -902.418    -894.030
  O     -455.236    -901.469    -893.620
  C     -455.556    -903.726    -894.510
  N     -456.177    -904.300    -895.700
  C     -455.624    -903.965    -896.930
  O     -454.670    -903.169    -896.970
  N     -456.146    -904.541    -898.060
  C     -457.196    -905.294    -898.020
  N     -457.586    -905.871    -899.160
  C     -457.904    -905.526    -896.750
  C     -457.368    -905.030    -895.640
  O     -455.746    -904.191    -888.400
  O     -457.299    -906.228    -888.640
  H     -457.867    -905.518    -888.250
  H     -455.715    -900.650    -893.350
  H     -458.821    -906.094    -896.770
  H     -457.803    -905.199    -894.660
  H     -454.466    -903.548    -894.730
  H     -456.848    -901.956    -894.770
  H     -457.943    -903.424    -893.220
  H     -455.234    -903.459    -891.760
  H     -457.066    -905.672    -900.000
  H     -457.343    -904.371    -890.570
  H     -458.208    -906.678    -899.180
  H     -457.408    -905.633    -891.820
  P     -458.647    -900.989    -892.280
  C     -459.348    -899.582    -894.360
  O     -458.314    -900.292    -893.700
  O     -458.495    -899.742    -891.260
  O     -459.961    -901.637    -892.160
  H     -459.363    -899.458    -890.970
  H     -458.899    -898.943    -895.120
  H     -459.915    -898.991    -893.640
  H     -460.032    -900.311    -894.880
  H     -454.306    -908.569    -887.947
  H     -455.188    -908.317    -889.435
  H     -456.019    -908.228    -887.901

 3  4  5  6  7  8  9  10  11  12  13  24  27  28  29  30  32 0
 6-311+G(2d,p)
 ****
 34  35 0
 6-311+G(2d,p)
 ****
 1  2  14  15  16  17  18  19  20  21  22  23  25  26 0
 3-21G
 ****
 31  33  36  37  38  39  40  41  42  43  44  45  46 0
 3-21G
 ****


