%nproc=1
%NoSave
%Mem=1900MB
#P OB98/GEN NMR

erre ene a

0 1
  C     -469.179     329.130      82.506
  O     -468.910     328.721      81.180
  H     -468.268     329.557      82.934
  H     -469.478     328.269      83.109
  H     -469.967     329.888      82.519
  P     -470.166     328.225      80.307
  C     -469.842     325.725      81.044
  O     -470.670     326.871      81.008
  C     -470.504     324.607      81.857
  O     -471.838     324.380      81.330
  C     -469.746     323.277      81.802
  O     -469.873     322.633      83.074
  C     -470.510     322.483      80.757
  O     -470.326     321.078      80.909
  C     -471.947     322.984      80.988
  N     -472.801     322.778      79.821
  C     -473.316     321.491      79.638
  O     -473.032     320.588      80.433
  N     -474.102     321.239      78.544
  C     -474.310     322.173      77.670
  N     -475.078     321.855      76.598
  C     -473.747     323.534      77.798
  C     -473.021     323.768      78.890
  O     -469.455     327.718      78.967
  O     -471.216     329.265      80.097
  H     -470.729     320.803      81.764
  H     -468.659     327.183      79.130
  H     -473.938     324.279      77.038
  H     -472.580     324.739      79.069
  H     -472.402     322.464      81.842
  H     -470.168     322.759      79.750
  H     -468.688     323.402      81.552
  H     -470.621     324.951      82.887
  H     -475.422     320.905      76.536
  H     -468.872     325.971      81.488
  H     -475.255     322.486      75.828
  H     -469.671     325.396      80.014
  P     -468.662     322.690      84.113
  C     -467.558     320.399      83.636
  O     -467.441     321.816      83.550
  O     -469.012     322.444      85.540
  O     -468.112     324.195      83.927
  H     -467.892     324.539      84.814
  H     -466.680     319.943      83.228
  H     -468.416     320.078      83.084
  H     -467.665     320.112      84.661

 6  7  8  9  10  11  12  13  14  15  16  26  30  31  32  33  35 0
 6-311+G(2d,p)
 ****
 37  38 0
 6-311+G(2d,p)
 ****
 1  2  3  4  5  17  18  19  20  21  22  23  24  25 0
 3-21G
 ****
 27  28  29  34  36  39  40  41  42  43  44  45  46 0
 3-21G
 ****


