%nproc=1
%NoSave
%Mem=1900MB
#P OB98/GEN NMR

erre ene a

0 1
  C      159.643     -36.722     114.381
  O      159.945     -37.025     113.027
  P      161.031     -36.169     112.210
  C      161.389     -33.648     111.859
  O      160.463     -34.669     112.210
  C      160.660     -32.323     111.655
  O      159.710     -32.488     110.573
  C      159.832     -31.825     112.843
  O      160.571     -31.104     113.816
  C      158.870     -30.878     112.135
  O      159.532     -29.628     111.858
  C      158.574     -31.623     110.832
  N      153.529     -31.680     109.967
  C      154.475     -30.734     109.755
  N      155.796     -30.786     110.031
  C      156.123     -31.987     110.539
  C      155.273     -33.050     110.809
  C      153.914     -32.863     110.497
  N      152.958     -33.838     110.694
  N      155.974     -34.112     111.351
  C      157.222     -33.695     111.393
  N      157.365     -32.424     110.909
  O      161.384     -36.731     110.879
  O      162.285     -36.078     113.197
  H      158.896     -29.074     111.364
  H      163.084     -35.810     112.703
  H      154.121     -29.805     109.309
  H      158.054     -34.275     111.771
  H      158.476     -30.947     109.973
  H      157.986     -30.642     112.738
  H      159.260     -32.642     113.301
  H      161.392     -31.565     111.347
  H      161.882     -33.935     110.924
  H      152.036     -33.663     110.323
  H      153.267     -34.768     110.935
  H      162.154     -33.561     112.638
  P      160.073     -31.213     115.344
  C      157.837     -30.472     116.484
  O      158.766     -30.286     115.438
  O      161.128     -30.945     116.359
  O      159.478     -32.701     115.415
  H      158.677     -32.851     114.887
  H      157.117     -29.646     116.461
  H      158.336     -30.469     117.454
  H      157.298     -31.412     116.345
  H      158.900     -37.403     114.742
  H      159.272     -35.721     114.448
  H      160.529     -36.814     114.973

 3  4  5  6  7  8  9  10  11  12  22  25  29  30  31  32 0
 6-311+G(2d,p)
 ****
 33  36  37 0
 6-311+G(2d,p)
 ****
 1  2  13  14  15  16  17  18  19  20  21  23  24  26 0
 3-21G
 ****
 27  28  34  35  38  39  40  41  42  43  44  45  46  47  48 0
 3-21G
 ****


