%nproc=1
%NoSave
%Mem=1900MB
#P OB98/GEN NMR

erre ene a

0 1
  C     -155.936      32.257     223.446
  O     -156.088      30.935     222.917
  P     -156.432      30.752     221.363
  C     -154.667      31.005     219.499
  O     -155.118      30.224     220.600
  C     -153.559      30.269     218.729
  O     -152.436      29.964     219.612
  C     -154.040      28.937     218.137
  O     -153.365      28.665     216.895
  C     -153.558      27.920     219.155
  O     -153.472      26.609     218.595
  C     -152.225      28.537     219.566
  N     -149.679      24.790     221.967
  C     -149.917      25.020     220.654
  N     -150.580      26.050     220.088
  C     -151.014      26.912     221.026
  C     -150.840      26.815     222.401
  C     -150.142      25.688     222.871
  N     -149.929      25.442     224.209
  N     -151.428      27.885     223.046
  C     -151.989      28.588     222.080
  N     -151.739      28.059     220.843
  O     -157.120      31.908     220.711
  O     -157.373      29.450     221.359
  H     -154.366      26.358     218.297
  H     -158.115      29.595     220.739
  H     -149.521      24.274     219.969
  H     -152.596      29.473     222.227
  H     -151.441      28.346     218.821
  H     -154.258      27.886     220.004
  H     -155.121      28.874     217.969
  H     -153.176      30.931     217.940
  H     -154.295      31.968     219.857
  H     -149.521      24.549     224.461
  H     -150.394      26.021     224.894
  H     -155.518      31.237     218.849
  P     -154.311      28.469     215.604
  C     -154.976      30.971     215.224
  O     -154.237      29.851     214.793
  O     -155.680      27.972     215.941
  O     -153.456      27.441     214.720
  H     -152.526      27.696     214.588
  H     -154.687      31.837     214.621
  H     -154.769      31.198     216.276
  H     -156.049      30.786     215.091
  H     -155.710      32.199     224.490
  H     -156.846      32.803     223.308
  H     -155.139      32.756     222.935

 3  4  5  6  7  8  9  10  11  12  22  25  29  30  31  32 0
 6-311+G(2d,p)
 ****
 33  36  37 0
 6-311+G(2d,p)
 ****
 1  2  13  14  15  16  17  18  19  20  21  23  24  26 0
 3-21G
 ****
 27  28  34  35  38  39  40  41  42  43  44  45  46  47  48 0
 3-21G
 ****


