%nproc=1
%NoSave
%Mem=1900MB
#P OB98/GEN NMR

erre ene a

0 1
  C     -173.389     258.010     -42.945
  O     -172.693     256.793     -42.713
  P     -173.473     255.425     -43.032
  C     -173.775     254.590     -40.591
  O     -173.094     254.426     -41.832
  C     -173.301     253.559     -39.579
  O     -173.670     252.237     -40.014
  C     -171.789     253.515     -39.378
  O     -171.338     254.537     -38.500
  C     -171.619     252.134     -38.754
  O     -171.901     252.206     -37.345
  C     -172.693     251.309     -39.473
  N     -170.128     247.112     -40.682
  C     -170.483     247.605     -39.440
  N     -170.127     246.863     -38.373
  N     -171.128     248.735     -39.269
  C     -171.456     249.348     -40.424
  C     -171.158     248.957     -41.717
  C     -170.397     247.740     -41.897
  O     -169.999     247.282     -42.961
  N     -171.675     249.836     -42.633
  C     -172.313     250.734     -41.912
  N     -172.184     250.499     -40.563
  O     -172.665     254.830     -44.278
  O     -174.925     255.574     -43.334
  H     -171.428     252.987     -36.996
  H     -173.244     254.241     -44.799
  H     -169.648     246.234     -40.760
  H     -172.873     251.566     -42.316
  H     -173.231     250.659     -38.779
  H     -170.603     251.742     -38.857
  H     -169.745     245.932     -38.451
  H     -171.265     253.551     -40.339
  H     -170.410     247.193     -37.458
  H     -173.810     253.755     -38.625
  H     -174.854     254.465     -40.753
  H     -173.594     255.603     -40.220
  P     -170.116     255.441     -39.014
  C     -169.378     255.287     -36.526
  O     -169.485     256.085     -37.699
  O     -170.846     256.662     -39.739
  O     -169.169     254.728     -39.926
  H     -170.264     257.052     -40.424
  H     -169.133     254.249     -36.772
  H     -170.321     255.326     -35.976
  H     -168.585     255.691     -35.902
  H     -172.757     258.836     -42.693
  H     -174.271     258.038     -42.340
  H     -173.663     258.073     -43.977

 3  4  5  6  7  8  9  10  11  12  23  26  30  31  33  0
 6-311+G(2d,p)
 ****
 35  36  37  38 0
 6-311+G(2d,p)
 ****
 1  2  13  14  15  16  17  18  19  20  21  22  24  25  27  28  29 0
 3-21G
 ****
 32  34  39  40  41  42  43  44  45  46  47  48  49 0
 3-21G
 ****


