%nproc=1
%NoSave
%Mem=1900MB
#P OB98/GEN NMR

erre ene a

0 1
  C     1271.352    -451.170    -883.768
  O     1270.430    -450.848    -884.801
  H     1270.798    -451.475    -882.881
  H     1271.980    -450.318    -883.528
  H     1271.976    -452.011    -884.085
  P     1270.991    -450.148    -886.123
  C     1270.201    -447.691    -886.387
  O     1271.131    -448.579    -885.753
  C     1268.879    -447.640    -885.627
  O     1269.128    -447.526    -884.206
  C     1268.021    -446.431    -885.978
  O     1267.467    -446.476    -887.275
  C     1267.074    -446.332    -884.768
  O     1265.924    -447.167    -884.884
  C     1268.001    -446.859    -883.628
  N     1268.394    -445.776    -882.718
  C     1267.409    -445.330    -881.852
  O     1266.266    -445.775    -881.808
  N     1267.795    -444.308    -881.004
  C     1268.996    -443.676    -881.012
  O     1269.250    -442.748    -880.254
  C     1269.982    -444.176    -881.976
  C     1269.652    -445.188    -882.786
  O     1270.217    -450.411    -887.387
  O     1272.518    -450.627    -886.196
  H     1265.467    -446.925    -885.712
  H     1272.894    -450.474    -887.106
  H     1267.092    -443.977    -880.344
  H     1270.952    -443.693    -882.008
  H     1270.349    -445.569    -883.517
  H     1267.452    -447.606    -883.026
  H     1266.731    -445.308    -884.621
  H     1268.653    -445.548    -885.938
  H     1268.336    -448.590    -885.800
  H     1270.019    -448.082    -887.405
  H     1270.639    -446.695    -886.467
  P     1266.936    -445.172    -888.066
  C     1264.331    -445.076    -888.090
  O     1265.521    -444.719    -887.400
  O     1267.081    -445.186    -889.557
  O     1267.969    -444.038    -887.489
  H     1268.133    -443.417    -888.213
  H     1263.482    -444.719    -887.545
  H     1264.276    -446.141    -888.178
  H     1264.339    -444.637    -889.066

 6  7  8  9  10  11  12  13  14  15  16  26  31  32  33  34  35 0
 6-311+G(2d,p)
 ****
 36  37 0
 6-311+G(2d,p)
 ****
 1  2  3  4  5  17  18  19  20  21  22  23  24  25 0
 3-21G
 ****
 27  28  29  30  38  39  40  41  42  43  44  45 0
 3-21G
 ****


