%nproc=1
%NoSave
%Mem=1900MB
#P OB98/GEN NMR

erre ene a

0 1
  C      845.098     538.317    -652.738
  O      844.040     539.169    -653.127
  H      846.040     538.743    -653.095
  H      844.966     537.332    -653.191
  H      845.133     538.230    -651.653
  P      842.567     538.740    -652.662
  C      841.742     541.216    -652.737
  O      841.575     539.880    -653.210
  C      842.661     542.003    -653.679
  O      842.099     541.962    -655.025
  C      842.822     543.491    -653.288
  O      844.127     543.924    -653.699
  C      841.763     544.141    -654.163
  O      841.995     545.533    -654.249
  C      841.961     543.333    -655.448
  N      840.234     545.903    -659.520
  C      841.427     545.907    -658.865
  N      841.804     545.196    -657.801
  C      840.827     544.361    -657.411
  C      839.571     544.222    -657.973
  C      839.281     545.040    -659.068
  N      838.058     545.043    -659.729
  N      838.829     543.285    -657.283
  C      839.635     542.843    -656.323
  N      840.854     543.474    -656.367
  O      842.598     538.981    -651.083
  O      842.163     537.344    -653.014
  H      841.266     545.982    -654.718
  H      842.845     538.165    -650.621
  H      842.161     546.611    -659.273
  H      839.391     542.105    -655.577
  H      842.875     543.615    -655.985
  H      840.767     543.996    -653.755
  H      842.690     543.668    -652.227
  H      843.641     541.489    -653.731
  H      842.179     541.184    -651.728
  H      840.759     541.701    -652.701
  H      837.931     545.673    -660.487
  H      837.320     544.436    -659.371
  P      845.068     544.683    -652.645
  C      847.193     544.119    -654.066
  O      846.460     545.098    -653.337
  O      845.511     543.493    -651.668
  O      844.386     545.770    -651.857
  H      845.422     543.776    -650.753
  H      848.086     544.560    -654.457
  H      846.594     543.752    -654.873
  H      847.450     543.309    -653.416

 6  7  8  9  10  11  12  13  14  15  25  28  32  33  34  35 0
 6-311+G(2d,p)
 ****
 36  37  40 0
 6-311+G(2d,p)
 ****
 1  2  3  4  5  16  17  18  19  20  21  22  23  24 0
 3-21G
 ****
 26  27  29  30  31  38  39 41  42  43  44  45  46  47  48 0
 3-21G
 ****


