%nproc=1
%NoSave
%Mem=1900MB
#P OB98/GEN NMR

erre ene a

0 1
  C      -54.072     110.042    -751.121
  O      -53.042     110.610    -750.345
  H      -53.757     109.046    -751.452
  H      -54.272     110.654    -752.002
  H      -54.987     109.938    -750.527
  P      -53.308     112.002    -749.606
  C      -51.433     111.688    -747.845
  O      -51.914     112.464    -748.944
  C      -50.231     112.378    -747.209
  O      -49.049     112.172    -748.028
  C      -50.380     113.899    -747.094
  O      -51.247     114.243    -746.033
  C      -48.929     114.306    -746.899
  O      -48.523     114.146    -745.535
  C      -48.183     113.309    -747.810
  N      -47.789     113.912    -749.076
  C      -46.789     114.889    -749.024
  O      -46.237     115.220    -747.966
  N      -46.479     115.505    -750.215
  C      -47.156     115.341    -751.386
  O      -47.011     116.103    -752.345
  C      -48.165     114.283    -751.410
  C      -48.440     113.623    -750.278
  O      -54.482     112.021    -748.670
  O      -53.501     113.046    -750.799
  H      -54.450     113.225    -750.921
  H      -49.123     114.718    -745.009
  H      -45.779     116.236    -750.156
  H      -48.670     114.073    -752.342
  H      -49.201     112.845    -750.254
  H      -47.283     112.927    -747.313
  H      -48.772     115.349    -747.174
  H      -50.746     114.311    -748.038
  H      -50.049     111.918    -746.222
  H      -51.134     110.699    -748.218
  H      -52.242     111.558    -747.114
  P      -52.166     115.563    -746.141
  C      -53.893     114.856    -744.371
  O      -52.885     115.797    -744.721
  O      -53.072     115.611    -747.330
  O      -51.095     116.758    -746.198
  H      -51.321     117.354    -746.952
  H      -54.299     115.108    -743.414
  H      -53.467     113.875    -744.331
  H      -54.671     114.877    -745.105

 6  7  8  9  10  11  12  13  14  15  16  27  31  32  33  34  35 0
 6-311+G(2d,p)
 ****
 36  37 0
 6-311+G(2d,p)
 ****
 1  2  3  4  5  17  18  19  20  21  22  23  24  25 0
 3-21G
 ****
 26  28  29  30  38  39  40  41  42  43  44  45 0
 3-21G
 ****


