%nproc=1
%NoSave
%Mem=1900MB
#P OB98/GEN NMR

erre ene a

0 1
  C     -154.991    -206.681     -87.382
  O     -155.286    -205.393     -87.875
  P     -156.761    -205.005     -88.360
  C     -157.057    -203.266     -86.482
  O     -157.548    -204.467     -87.063
  C     -158.082    -202.138     -86.646
  O     -159.369    -202.598     -86.127
  C     -157.692    -200.857     -85.879
  O     -157.694    -199.669     -86.672
  C     -158.658    -200.861     -84.705
  O     -158.842    -199.593     -84.107
  C     -159.896    -201.521     -85.326
  N     -160.844    -201.990     -84.317
  C     -161.928    -201.166     -84.034
  O     -162.141    -200.087     -84.579
  N     -162.760    -201.590     -83.035
  C     -162.557    -202.670     -82.231
  O     -163.290    -202.938     -81.287
  C     -161.373    -203.482     -82.551
  C     -160.594    -203.128     -83.576
  O     -157.484    -206.064     -89.121
  O     -156.527    -203.653     -89.188
  H     -157.990    -199.318     -83.720
  H     -156.130    -202.925     -88.678
  H     -163.549    -201.001     -82.819
  H     -161.180    -204.340     -81.922
  H     -159.715    -203.706     -83.835
  H     -160.417    -200.839     -85.998
  H     -158.243    -201.522     -83.933
  H     -156.665    -200.922     -85.504
  H     -158.191    -201.938     -87.716
  H     -156.131    -202.983     -86.986
  H     -156.819    -203.435     -85.426
  P     -156.968    -198.300     -86.279
  C     -155.017    -198.281     -87.998
  O     -155.417    -198.433     -86.653
  O     -157.246    -197.807     -84.898
  O     -157.515    -197.261     -87.368
  H     -157.525    -196.363     -86.986
  H     -154.110    -198.868     -88.163
  H     -154.791    -197.229     -88.190
  H     -155.792    -198.622     -88.690
  H     -153.956    -206.732     -87.114
  H     -155.200    -207.409     -88.138
  H     -155.593    -206.879     -86.520

 3  4  5  6  7  8  9  10  11  12  13  23  28  29  30  31  32 0
 6-311+G(2d,p)
 ****
 33  34 0
 6-311+G(2d,p)
 ****
 1  2  14  15  16  17  18  19  20  21  22  24  25  26  27 0
 3-21G
 ****
 35  36  37  38  39  40  41  42  43  44  45 0
 3-21G
 ****


