%nproc=1
%NoSave
%Mem=1900MB
#P OB98/GEN NMR

erre ene a

0 1
  C     -857.011     708.203    -899.342
  O     -858.390     708.480    -899.012
  P     -858.663     709.713    -898.032
  C     -857.697     710.365    -895.702
  O     -858.014     709.342    -896.622
  C     -857.935     709.876    -894.242
  O     -857.037     708.747    -893.952
  C     -857.589     710.919    -893.192
  O     -858.588     711.894    -893.072
  C     -857.435     709.995    -891.962
  O     -858.739     709.645    -891.462
  C     -856.742     708.760    -892.552
  N     -852.916     707.481    -889.392
  C     -854.259     707.382    -889.242
  N     -855.191     707.761    -890.162
  C     -854.665     708.311    -891.242
  C     -853.311     708.499    -891.512
  C     -852.416     708.059    -890.542
  N     -851.006     708.155    -890.652
  N     -853.116     709.105    -892.762
  C     -854.292     709.224    -893.232
  N     -855.265     708.759    -892.382
  O     -860.257     709.583    -897.762
  O     -858.257     711.054    -898.592
  H     -859.229     709.302    -892.232
  H     -860.626     710.488    -897.662
  H     -854.624     706.921    -888.362
  H     -854.555     709.738    -894.192
  H     -857.126     707.817    -892.122
  H     -856.869     710.485    -891.142
  H     -856.610     711.425    -893.392
  H     -858.960     709.547    -894.152
  H     -858.339     711.240    -895.882
  H     -850.475     707.948    -889.822
  H     -850.662     708.722    -891.412
  H     -856.653     710.717    -895.852
  P     -858.147     713.348    -892.572
  C     -856.794     714.187    -890.552
  O     -857.374     713.058    -891.192
  O     -859.557     713.959    -892.082
  O     -857.428     714.184    -893.582
  H     -860.028     713.332    -891.472
  H     -856.323     713.868    -889.632
  H     -857.596     714.941    -890.342
  H     -855.994     714.689    -891.172
  H     -856.964     707.361    -900.000
  H     -856.466     707.987    -898.447
  H     -856.581     709.056    -899.824

 3  4  5  6  7  8  9  10  11  12  22  25  29  30  31  32 0
 6-311+G(2d,p)
 ****
 33  36  37 0
 6-311+G(2d,p)
 ****
 1  2  13  14  15  16  17  18  19  20  21  23  24  26 0
 3-21G
 ****
 27  28  34  35  38  39  40  41  42  43  44  45  46  47  48 0
 3-21G
 ****


