%nproc=1
%NoSave
%Mem=1900MB
#P OB98/GEN NMR

erre ene a

0 1
  C     -544.655    -122.020    -298.560
  O     -544.890    -121.134    -297.485
  H     -543.942    -121.554    -299.251
  H     -545.585    -122.228    -299.098
  H     -544.224    -122.957    -298.185
  P     -545.941    -121.619    -296.371
  C     -547.806    -120.449    -297.718
  O     -547.346    -121.667    -297.145
  C     -548.929    -120.712    -298.723
  O     -550.159    -120.949    -297.986
  C     -549.179    -119.530    -299.678
  O     -549.495    -120.044    -300.977
  C     -550.404    -118.847    -299.085
  O     -551.145    -118.126    -300.062
  C     -551.151    -120.039    -298.474
  N     -555.929    -118.659    -297.300
  C     -555.384    -119.160    -298.428
  N     -554.098    -119.508    -298.654
  C     -553.364    -119.354    -297.537
  C     -553.780    -118.851    -296.316
  C     -555.129    -118.491    -296.215
  N     -555.684    -117.962    -295.076
  N     -552.707    -118.807    -295.428
  C     -551.682    -119.278    -296.106
  N     -552.020    -119.609    -297.390
  O     -545.938    -120.843    -295.101
  O     -545.567    -123.165    -296.233
  H     -551.932    -117.735    -299.631
  H     -545.422    -123.581    -297.100
  H     -556.066    -119.277    -299.271
  H     -550.678    -119.388    -295.710
  H     -551.781    -120.560    -299.208
  H     -550.083    -118.145    -298.303
  H     -548.325    -118.858    -299.739
  H     -548.704    -121.636    -299.277
  H     -546.976    -119.940    -298.223
  H     -556.684    -117.736    -295.089
  H     -555.118    -117.837    -294.247
  H     -548.156    -119.808    -296.910
  P     -548.325    -120.125    -302.073
  C     -548.388    -117.546    -302.335
  O     -547.576    -118.704    -302.114
  O     -548.707    -120.694    -303.395
  O     -547.231    -121.057    -301.346
  H     -546.819    -121.642    -302.006
  H     -547.770    -116.673    -302.339
  H     -549.114    -117.465    -301.553
  H     -548.887    -117.635    -303.277

 6  7  8  9  10  11  12  13  14  15  25  28  32  33  34  35 0
 6-311+G(2d,p)
 ****
 36  39  40 0
 6-311+G(2d,p)
 ****
 1  2  3  4  5  16  17  18  19  20  21  22  23  24 0
 3-21G
 ****
 26  27  29  30  31  37  38  41  42  43  44  45  46  47 0
 3-21G
 ****
 48 0
 3-21G
 ****


