%nproc=1
%NoSave
%Mem=1900MB
#P OB98/GEN NMR

erre ene a

0 1
  C     -899.318     140.415     451.799
  O     -899.048     141.411     450.794
  P     -898.058     141.124     449.564
  C     -895.918     142.065     450.625
  O     -896.548     140.895     450.083
  C     -894.418     142.143     450.237
  O     -894.228     142.314     448.798
  C     -893.658     143.307     450.916
  O     -892.308     142.829     451.089
  C     -893.718     144.381     449.868
  O     -892.738     145.401     450.036
  C     -893.528     143.543     448.601
  N     -892.588     147.332     445.257
  C     -891.838     146.778     446.221
  N     -892.138     145.760     447.042
  C     -893.358     145.251     446.774
  C     -894.248     145.711     445.791
  C     -893.818     146.818     445.036
  N     -894.618     147.417     444.085
  N     -895.428     144.980     445.845
  C     -895.228     144.094     446.818
  N     -894.018     144.237     447.399
  O     -898.178     142.106     448.442
  O     -898.498     139.658     449.048
  H     -892.838     146.048     449.322
  H     -898.568     139.670     448.076
  H     -890.848     147.225     446.353
  H     -895.968     143.381     447.117
  H     -892.458     143.292     448.432
  H     -894.698     144.883     449.888
  H     -894.078     143.599     451.880
  H     -893.968     141.179     450.477
  H     -896.008     142.058     451.695
  H     -894.268     148.255     443.627
  H     -895.578     147.116     443.977
  H     -896.438     142.958     450.222
  P     -891.728     142.429     452.534
  C     -891.068     144.850     453.045
  O     -891.838     143.745     453.450
  O     -890.388     141.783     452.515
  O     -892.848     141.451     453.154
  H     -892.438     140.927     453.885
  H     -890.008     144.688     453.288
  H     -891.428     145.744     453.547
  H     -891.158     145.004     451.941
  H     -900.000     140.813     452.521
  H     -898.405     140.141     452.284
  H     -899.750     139.551     451.338

 3  4  5  6  7  8  9  10  11  12  22  25  29  30  31  32 0
 6-311+G(2d,p)
 ****
 33  36  37 0
 6-311+G(2d,p)
 ****
 1  2  13  14  15  16  17  18  19  20  21  23  24  26 0
 3-21G
 ****
 27  28  34  35  38  39  40  41  42  43  44  45  46  47  48 0
 3-21G
 ****


