%nproc=1
%NoSave
%Mem=1900MB
#P OB98/GEN NMR

erre ene a

0 1
  C       36.078    -117.335    -139.441
  O       34.819    -117.920    -139.175
  H       36.794    -117.704    -138.702
  H       36.018    -116.248    -139.355
  H       36.430    -117.615    -140.437
  P       33.583    -117.537    -140.124
  C       32.284    -116.789    -138.010
  O       32.778    -116.422    -139.289
  C       32.659    -115.731    -136.976
  O       34.072    -115.433    -137.018
  C       31.980    -114.378    -137.167
  O       30.609    -114.370    -136.807
  C       32.828    -113.527    -136.239
  O       32.461    -113.790    -134.873
  C       34.243    -114.065    -136.555
  N       34.938    -113.265    -137.562
  C       35.299    -111.965    -137.188
  O       35.029    -111.534    -136.069
  N       35.935    -111.165    -138.111
  C       36.166    -111.615    -139.305
  N       36.791    -110.777    -140.179
  C       35.783    -112.971    -139.746
  C       35.183    -113.732    -138.835
  O       32.761    -118.682    -140.626
  O       34.232    -116.657    -141.294
  H       33.063    -113.266    -134.312
  H       33.508    -116.403    -141.917
  H       35.971    -113.286    -140.761
  H       34.865    -114.740    -139.087
  H       34.858    -114.105    -135.647
  H       32.706    -112.456    -136.406
  H       32.116    -114.014    -138.192
  H       32.447    -116.152    -135.984
  H       37.039    -109.854    -139.847
  H       32.709    -117.763    -137.746
  H       36.941    -111.016    -141.150
  H       31.194    -116.872    -138.038
  P       29.546    -114.158    -137.994
  C       27.941    -112.946    -136.329
  O       28.636    -112.910    -137.564
  O       28.579    -115.418    -137.844
  O       30.138    -114.043    -139.365
  H       28.823    -116.120    -138.479
  H       27.388    -112.038    -136.204
  H       28.643    -113.049    -135.528
  H       27.268    -113.778    -136.323

 6  7  8  9  10  11  12  13  14  15  16  26  30  31  32  33  35 0
 6-311+G(2d,p)
 ****
 37  38 0
 6-311+G(2d,p)
 ****
 1  2  3  4  5  17  18  19  20  21  22  23  24  25 0
 3-21G
 ****
 27  28  29  34  36  39  40  41  42  43  44  45  46 0
 3-21G
 ****


