%nproc=1
%NoSave
%Mem=1900MB
#P OB98/GEN NMR

erre ene a

0 1
  C      -43.432    -231.241     279.525
  O      -42.091    -231.515     279.166
  P      -41.141    -230.350     278.608
  C      -39.324    -231.138     280.263
  O      -40.100    -230.038     279.792
  C      -38.253    -230.667     281.247
  O      -38.863    -230.143     282.447
  C      -37.306    -231.766     281.710
  O      -36.348    -232.049     280.708
  C      -36.732    -231.145     282.979
  O      -35.657    -230.241     282.674
  C      -37.950    -230.375     283.542
  N      -38.592    -231.083     284.642
  C      -38.769    -230.346     285.815
  O      -38.369    -229.183     285.898
  N      -39.360    -230.958     286.902
  C      -39.707    -232.209     286.816
  N      -40.277    -232.766     287.926
  C      -39.514    -233.030     285.604
  C      -38.952    -232.410     284.569
  O      -41.851    -229.159     278.049
  O      -40.235    -231.117     277.532
  H      -35.383    -229.845     283.526
  H      -40.746    -231.310     276.703
  H      -39.811    -234.063     285.590
  H      -38.765    -232.936     283.638
  H      -37.643    -229.386     283.902
  H      -36.330    -231.903     283.661
  H      -37.877    -232.663     281.967
  H      -37.690    -229.848     280.765
  H      -40.373    -232.182     288.743
  H      -38.841    -231.613     279.402
  H      -40.558    -233.733     287.977
  H      -39.993    -231.874     280.735
  P      -36.285    -233.516     280.060
  C      -37.134    -232.899     277.717
  O      -37.407    -233.597     278.919
  O      -36.280    -234.647     281.034
  O      -34.917    -233.488     279.215
  H      -34.433    -234.321     279.373
  H      -37.782    -233.292     276.933
  H      -36.093    -233.020     277.416
  H      -37.357    -231.831     277.860
  H      -43.899    -232.139     279.872
  H      -43.961    -230.871     278.672
  H      -43.450    -230.506     280.303

 3  4  5  6  7  8  9  10  11  12  13  23  27  28  29  30  32 0
 6-311+G(2d,p)
 ****
 34  35 0
 6-311+G(2d,p)
 ****
 1  2  14  15  16  17  18  19  20  21  22  24  25  26 0
 3-21G
 ****
 31  33  36  37  38  39  40  41  42  43  44  45  46 0
 3-21G
 ****


