%nproc=1
%NoSave
%Mem=1900MB
#P OB98/GEN NMR

erre ene a

0 1
  C      179.708    -110.465    -206.152
  O      178.471    -110.573    -205.478
  P      177.605    -109.309    -205.026
  C      178.022    -107.066    -203.780
  O      178.571    -108.302    -204.225
  C      178.460    -106.696    -202.354
  O      179.878    -106.429    -202.340
  C      177.771    -105.398    -201.913
  O      176.462    -105.432    -201.383
  C      178.800    -104.683    -201.043
  O      178.577    -104.889    -199.646
  C      180.128    -105.314    -201.471
  N      184.922    -103.741    -201.977
  C      184.443    -104.902    -201.406
  N      185.346    -105.641    -200.721
  N      183.196    -105.289    -201.484
  C      182.396    -104.395    -202.117
  C      182.754    -103.222    -202.733
  C      184.146    -102.831    -202.677
  O      184.591    -101.765    -203.096
  N      181.664    -102.545    -203.211
  C      180.638    -103.285    -202.851
  N      181.030    -104.400    -202.148
  O      176.246    -109.585    -204.475
  O      177.410    -108.540    -206.432
  H      177.636    -104.713    -199.464
  H      176.529    -108.116    -206.415
  H      185.877    -103.456    -201.814
  H      179.599    -103.045    -203.040
  H      180.667    -105.707    -200.601
  H      178.757    -103.601    -201.207
  H      186.276    -105.302    -200.520
  H      177.679    -104.773    -202.808
  H      185.001    -106.403    -200.151
  H      178.306    -107.533    -201.665
  H      176.933    -107.151    -203.840
  H      178.322    -106.267    -204.464
  P      175.547    -104.170    -201.033
  C      175.611    -102.176    -199.427
  O      176.144    -103.457    -199.732
  O      174.179    -104.811    -200.492
  O      175.275    -103.255    -202.181
  H      173.454    -104.164    -200.586
  H      176.281    -101.668    -198.734
  H      174.631    -102.290    -198.959
  H      175.512    -101.569    -200.337
  H      180.094    -111.444    -206.347
  H      180.400    -109.923    -205.542
  H      179.566    -109.946    -207.077

 3  4  5  6  7  8  9  10  11  12  23  26  30  31 0
 6-311+G(2d,p)
 ****
 33  35  36  37  38 0
 6-311+G(2d,p)
 ****
 1  2  13  14  15  16  17  18  19  20  21  22  24  25 0
 3-21G
 ****
 27  28  29  32  34  39  40  41  42  43  44  45  46  47  48  49 0
 3-21G
 ****


