%nproc=1
%NoSave
%Mem=1900MB
#P OB98/GEN NMR

erre ene a

0 1
  C       42.043    -111.748     103.904
  O       40.679    -112.127     103.837
  P       39.648    -111.342     104.782
  C       37.627    -110.863     103.214
  O       38.175    -111.672     104.249
  C       36.314    -111.464     102.715
  O       36.579    -112.617     101.888
  C       35.385    -111.959     103.816
  O       34.734    -110.878     104.464
  C       34.466    -112.874     103.015
  O       33.483    -112.093     102.314
  C       35.443    -113.515     102.014
  N       34.713    -118.571     101.642
  C       34.043    -117.522     101.116
  N       34.286    -116.205     101.279
  C       35.347    -116.012     102.076
  C       36.114    -116.978     102.702
  C       35.766    -118.316     102.459
  N       36.449    -119.384     103.003
  N       37.109    -116.399     103.463
  C       36.953    -115.104     103.290
  N       35.912    -114.820     102.448
  O       39.862    -109.813     104.367
  O       39.859    -111.555     106.250
  H       32.830    -112.718     101.938
  H       39.746    -109.222     105.135
  H       33.203    -117.776     100.477
  H       37.569    -114.338     103.745
  H       35.005    -113.637     101.016
  H       33.926    -113.597     103.636
  H       35.947    -112.546     104.552
  H       35.807    -110.708     102.102
  H       38.331    -110.810     102.377
  H       36.042    -120.299     102.897
  H       37.139    -119.191     103.721
  H       37.475    -109.850     103.598
  P       34.333    -111.078     106.003
  C       34.363    -108.579     106.599
  O       33.555    -109.722     106.373
  O       35.740    -110.882     106.736
  O       33.613    -112.344     106.306
  H       36.210    -110.087     106.425
  H       33.712    -107.721     106.786
  H       34.979    -108.369     105.718
  H       35.003    -108.736     107.473
  H       42.614    -112.348     103.227
  H       42.405    -111.893     104.901
  H       42.140    -110.717     103.635

 3  4  5  6  7  8  9  10  11  12  22  25  29  30  31  32 0
 6-311+G(2d,p)
 ****
 33  36  37 0
 6-311+G(2d,p)
 ****
 1  2  13  14  15  16  17  18  19  20  21  23  24  26 0
 3-21G
 ****
 27  28  34  35  38  39  40  41  42  43  44  45  46  47  48 0
 3-21G
 ****


