%nproc=1
%NoSave
%Mem=1900MB
#P OB98/GEN NMR

erre ene a

0 1
  C      -28.696    -174.187     120.440
  O      -29.693    -173.478     119.728
  H      -29.180    -174.804     121.200
  H      -28.017    -173.486     120.933
  H      -28.137    -174.837     119.760
  P      -29.177    -172.487     118.574
  C      -27.277    -170.724     118.571
  O      -28.309    -171.355     119.312
  C      -26.448    -169.816     119.478
  O      -26.345    -170.377     120.805
  C      -25.026    -169.572     118.995
  O      -24.983    -168.544     118.018
  C      -24.334    -169.176     120.292
  O      -24.575    -167.792     120.618
  C      -25.011    -170.106     121.310
  N      -21.844    -172.528     124.411
  C      -22.412    -171.275     124.518
  N      -22.040    -170.535     125.588
  N      -23.260    -170.784     123.651
  C      -23.514    -171.622     122.620
  C      -23.028    -172.892     122.408
  C      -22.112    -173.435     123.393
  O      -21.624    -174.560     123.385
  N      -23.531    -173.432     121.254
  C      -24.291    -172.478     120.749
  N      -24.300    -171.354     121.534
  O      -30.506    -171.702     118.137
  O      -28.523    -173.148     117.409
  H      -25.533    -167.631     120.644
  H      -30.440    -171.467     117.193
  H      -21.209    -172.856     125.117
  H      -24.850    -172.552     119.827
  H      -25.123    -169.627     122.291
  H      -23.250    -169.298     120.225
  H      -21.172    -170.713     126.078
  H      -24.580    -170.500     118.612
  H      -22.435    -169.607     125.663
  H      -26.992    -168.864     119.570
  H      -27.726    -170.124     117.773
  H      -26.635    -171.491     118.123
  P      -23.569    -168.231     117.323
  C      -21.318    -167.199     118.123
  O      -22.669    -167.510     118.437
  O      -23.911    -167.046     116.303
  O      -22.939    -169.398     116.641
  H      -23.200    -166.959     115.640
  H      -20.857    -166.725     118.964
  H      -21.290    -166.539     117.281
  H      -20.790    -168.099     117.887

 6  7  8  9  10  11  12  13  14  15  26  29  33  34 0
 6-311+G(2d,p)
 ****
 36  38  39  40  41 0
 6-311+G(2d,p)
 ****
 1  2  3  4  5  16  17  18  19  20  21  22  23  24  25 0
 3-21G
 ****
 27  28  30  31  32  35  37  42  43  44  45  46  47 0
 3-21G
 ****
 48  49 0
 3-21G
 ****


