%nproc=1
%NoSave
%Mem=1900MB
#P OB98/GEN NMR

erre ene a

0 1
  C     -113.817    -247.489    -215.683
  O     -112.939    -246.682    -216.461
  P     -111.363    -246.783    -216.177
  C     -110.528    -245.572    -218.309
  O     -110.675    -245.523    -216.899
  C     -109.689    -244.400    -218.823
  O     -110.403    -243.158    -218.554
  C     -108.310    -244.273    -218.165
  O     -107.416    -243.743    -219.159
  C     -108.531    -243.228    -217.088
  O     -107.317    -242.611    -216.675
  C     -109.510    -242.304    -217.802
  N     -109.315    -238.320    -214.601
  C     -108.382    -238.869    -215.406
  N     -108.509    -239.932    -216.235
  C     -109.755    -240.432    -216.174
  C     -110.799    -239.998    -215.373
  C     -110.547    -238.881    -214.556
  N     -111.498    -238.310    -213.741
  N     -111.916    -240.783    -215.568
  C     -111.554    -241.674    -216.470
  N     -110.268    -241.487    -216.881
  O     -110.921    -248.025    -217.084
  O     -110.986    -246.993    -214.748
  H     -106.862    -242.258    -217.462
  H     -110.663    -248.779    -216.519
  H     -107.401    -238.396    -215.391
  H     -112.185    -242.473    -216.847
  H     -109.007    -241.634    -218.514
  H     -108.988    -243.695    -216.211
  H     -107.912    -245.216    -217.765
  H     -109.590    -244.492    -219.911
  H     -111.515    -245.518    -218.770
  H     -111.279    -237.435    -213.296
  H     -112.463    -238.602    -213.847
  H     -110.063    -246.526    -218.597
  P     -106.070    -244.578    -219.441
  C     -105.685    -243.646    -221.836
  O     -105.217    -243.721    -220.495
  O     -106.590    -245.830    -220.296
  O     -105.346    -245.003    -218.208
  H     -105.991    -246.591    -220.156
  H     -105.421    -242.664    -222.241
  H     -106.768    -243.776    -221.900
  H     -105.193    -244.422    -222.427
  H     -114.828    -247.312    -215.987
  H     -113.707    -247.240    -214.648
  H     -113.576    -248.521    -215.829

 3  4  5  6  7  8  9  10  11  12  22  25  29  30  31  32 0
 6-311+G(2d,p)
 ****
 33  36  37 0
 6-311+G(2d,p)
 ****
 1  2  13  14  15  16  17  18  19  20  21  23  24  26 0
 3-21G
 ****
 27  28  34  35  38  39  40  41  42  43  44  45  46  47  48 0
 3-21G
 ****


