%nproc=1
%NoSave
%Mem=1900MB
#P OB98/GEN NMR

erre ene a

0 1
  C      -12.102    -626.071    -275.650
  O      -11.611    -626.341    -274.348
  H      -13.195    -626.054    -275.616
  H      -11.779    -626.852    -276.338
  H      -11.742    -625.094    -275.995
  P      -10.019    -626.320    -274.154
  C       -8.570    -625.245    -272.289
  O       -9.754    -625.960    -272.609
  C       -8.713    -624.539    -270.940
  O       -9.545    -623.352    -271.106
  C       -9.350    -625.400    -269.835
  O       -8.739    -625.063    -268.584
  C      -10.789    -624.908    -269.814
  O      -11.446    -625.190    -268.572
  C      -10.565    -623.420    -270.084
  N      -14.887    -621.453    -268.395
  C      -13.821    -622.014    -267.711
  N      -13.932    -622.070    -266.358
  N      -12.758    -622.500    -268.290
  C      -12.763    -622.346    -269.644
  C      -13.752    -621.806    -270.448
  C      -14.949    -621.319    -269.775
  O      -15.925    -620.824    -270.338
  N      -13.396    -621.866    -271.767
  C      -12.209    -622.441    -271.767
  N      -11.785    -622.751    -270.501
  O       -9.589    -624.987    -274.933
  O       -9.293    -627.521    -274.662
  H      -11.597    -626.160    -268.529
  H       -9.340    -625.196    -275.852
  H      -15.691    -621.116    -267.900
  H      -11.612    -622.652    -272.648
  H      -10.196    -622.885    -269.200
  H      -11.367    -625.370    -270.619
  H      -14.706    -621.685    -265.840
  H       -9.271    -626.485    -270.003
  H      -13.148    -622.449    -265.837
  H       -7.718    -624.186    -270.623
  H       -8.388    -624.491    -273.064
  H       -7.717    -625.940    -272.263
  P       -7.536    -625.982    -268.056
  C       -5.278    -625.489    -266.855
  O       -6.635    -625.102    -267.063
  O       -6.604    -626.134    -269.353
  O       -7.970    -627.312    -267.527
  H       -6.105    -626.976    -269.309
  H       -4.814    -624.808    -266.172
  H       -4.755    -625.471    -267.788
  H       -5.248    -626.478    -266.448

 6  7  8  9  10  11  12  13  14  15  26  29  33  34 0
 6-311+G(2d,p)
 ****
 36  38  39  40  41 0
 6-311+G(2d,p)
 ****
 1  2  3  4  5  16  17  18  19  20  21  22  23  24  25 0
 3-21G
 ****
 27  28  30  31  32  35  37  42  43  44  45  46  47 0
 3-21G
 ****
 48  49 0
 3-21G
 ****


