%nproc=1
%NoSave
%Mem=1900MB
#P OB98/GEN NMR

erre ene a

0 1
  C      272.600      85.000    -186.344
  O      273.337      85.944    -185.594
  H      272.108      85.497    -187.185
  H      273.287      84.245    -186.734
  H      271.853      84.507    -185.714
  P      272.495      87.044    -184.786
  C      271.969      88.949    -186.475
  O      271.532      87.739    -185.869
  C      270.852      89.551    -187.330
  O      270.534      88.625    -188.403
  C      269.559      89.816    -186.548
  O      268.981      91.037    -187.012
  C      268.670      88.644    -186.930
  O      267.286      88.951    -186.793
  C      269.115      88.379    -188.364
  N      265.368      85.025    -189.260
  C      265.349      86.340    -188.957
  N      266.396      87.166    -188.741
  C      267.559      86.510    -188.911
  C      267.737      85.172    -189.218
  C      266.569      84.407    -189.386
  N      266.578      83.057    -189.657
  N      269.083      84.861    -189.272
  C      269.703      85.995    -189.004
  N      268.823      87.016    -188.775
  O      273.599      88.169    -184.485
  O      271.829      86.566    -183.539
  H      267.086      89.054    -185.838
  H      274.144      87.893    -183.723
  H      264.361      86.791    -188.873
  H      270.777      86.127    -188.957
  H      268.626      89.046    -189.086
  H      268.895      87.787    -186.286
  H      269.721      89.877    -185.472
  H      271.226      90.467    -187.802
  H      272.839      88.737    -187.106
  H      265.694      82.576    -189.708
  H      267.462      82.568    -189.695
  H      272.259      89.660    -185.693
  P      269.160      92.326    -186.069
  C      267.641      91.437    -184.162
  O      268.937      91.877    -184.542
  O      267.865      93.209    -186.397
  O      270.418      93.088    -186.328
  H      268.126      94.128    -186.585
  H      267.644      91.173    -183.125
  H      267.368      90.583    -184.747
  H      266.934      92.223    -184.328

 6  7  8  9  10  11  12  13  14  15  25  28  32  33  34  35 0
 6-311+G(2d,p)
 ****
 36  39  40 0
 6-311+G(2d,p)
 ****
 1  2  3  4  5  16  17  18  19  20  21  22  23  24 0
 3-21G
 ****
 26  27  29  30  31  37  38  41  42  43  44  45  46  47 0
 3-21G
 ****
 48 0
 3-21G
 ****


