%nproc=1
%NoSave
%Mem=1900MB
#P OB98/GEN NMR

erre ene a

0 1
  C      389.542    -280.065      -4.594
  O      390.723    -280.832      -4.630
  H      389.730    -279.161      -4.006
  H      388.748    -280.638      -4.109
  H      389.223    -279.770      -5.596
  P      390.881    -281.946      -5.768
  C      393.431    -282.282      -6.001
  O      392.216    -282.786      -5.463
  C      394.578    -282.372      -4.996
  O      394.440    -281.335      -4.004
  C      394.593    -283.705      -4.240
  O      395.296    -284.746      -4.898
  C      395.279    -283.318      -2.933
  O      396.707    -283.432      -3.035
  C      394.874    -281.857      -2.736
  N      393.674    -280.846       2.133
  C      394.918    -281.095       1.581
  N      395.957    -281.115       2.441
  N      395.103    -281.324       0.302
  C      393.959    -281.368      -0.414
  C      392.670    -281.158       0.029
  C      392.479    -280.836       1.426
  O      391.405    -280.590       1.958
  N      391.754    -281.330      -0.986
  C      392.484    -281.730      -2.009
  N      393.835    -281.690      -1.732
  O      391.299    -281.099      -7.066
  O      389.657    -282.766      -6.043
  H      397.087    -283.262      -2.149
  H      390.954    -281.536      -7.865
  H      393.594    -280.649       3.113
  H      392.095    -282.012      -2.983
  H      395.725    -281.241      -2.414
  H      394.969    -283.982      -2.118
  H      395.857    -281.033       3.442
  H      393.573    -284.030      -4.010
  H      396.852    -281.482       2.107
  H      395.530    -282.195      -5.514
  H      393.242    -281.238      -6.264
  H      393.689    -282.812      -6.922
  P      394.717    -286.235      -4.940
  C      394.591    -286.654      -7.529
  O      395.205    -286.930      -6.288
  O      393.153    -285.999      -5.188
  O      394.972    -287.058      -3.720
  H      392.657    -286.062      -4.349
  H      395.070    -287.223      -8.298
  H      394.682    -285.611      -7.748
  H      393.555    -286.919      -7.481

 6  7  8  9  10  11  12  13  14  15  26  29  33  34 0
 6-311+G(2d,p)
 ****
 36  38  39  40  41 0
 6-311+G(2d,p)
 ****
 1  2  3  4  5  16  17  18  19  20  21  22  23  24  25 0
 3-21G
 ****
 27  28  30  31  32  35  37  42  43  44  45  46  47 0
 3-21G
 ****
 48  49 0
 3-21G
 ****


