%nproc=1
%NoSave
%Mem=1900MB
#P OB98/GEN NMR

erre ene a

0 1
  C     -187.627     171.412     -22.097
  O     -187.983     170.572     -21.016
  H     -187.768     170.859     -23.029
  H     -186.576     171.705     -22.019
  H     -188.259     172.304     -22.121
  P     -187.997     171.182     -19.534
  C     -186.378     172.547     -18.066
  O     -186.617     171.978     -19.347
  C     -185.032     172.068     -17.526
  O     -185.128     170.694     -17.086
  C     -183.907     172.095     -18.557
  O     -183.452     173.417     -18.770
  C     -182.902     171.160     -17.898
  O     -182.174     171.835     -16.861
  C     -183.835     170.082     -17.290
  N     -183.944     168.886     -18.134
  C     -182.800     168.099     -18.229
  O     -181.744     168.370     -17.659
  N     -182.898     167.006     -19.049
  C     -183.973     166.690     -19.829
  O     -183.937     165.831     -20.707
  C     -185.173     167.511     -19.628
  C     -185.104     168.564     -18.811
  O     -188.325     170.221     -18.442
  O     -189.078     172.361     -19.623
  H     -189.920     172.055     -19.237
  H     -181.784     171.140     -16.300
  H     -182.060     166.456     -19.164
  H     -186.067     167.251     -20.182
  H     -185.969     169.204     -18.671
  H     -183.470     169.772     -16.303
  H     -182.170     170.771     -18.608
  H     -184.248     171.641     -19.498
  H     -184.772     172.682     -16.653
  H     -187.175     172.228     -17.387
  H     -186.396     173.638     -18.150
  P     -182.148     173.708     -19.654
  C     -179.695     174.342     -19.268
  O     -180.916     173.953     -18.658
  O     -182.317     174.760     -20.698
  O     -181.798     172.293     -20.321
  H     -181.724     172.404     -21.290
  H     -178.947     174.477     -18.515
  H     -179.838     175.261     -19.798
  H     -179.380     173.582     -19.951

 6  7  8  9  10  11  12  13  14  15  16  27  31  32  33  34  35 0
 6-311+G(2d,p)
 ****
 36  37 0
 6-311+G(2d,p)
 ****
 1  2  3  4  5  17  18  19  20  21  22  23  24  25 0
 3-21G
 ****
 26  28  29  30  38  39  40  41  42  43  44  45 0
 3-21G
 ****


