%nproc=1
%NoSave
%Mem=1900MB
#P OB98/GEN NMR

erre ene a

0 1
  C       90.658     -47.392       1.233
  O       90.880     -47.412      -0.163
  P       90.811     -48.775      -1.005
  C       93.309     -48.993      -0.435
  O       92.057     -49.658      -0.507
  C       94.238     -49.664       0.578
  O       93.545     -49.812       1.849
  C       94.744     -51.052       0.162
  O       96.068     -51.172       0.691
  C       93.792     -51.979       0.893
  O       94.303     -53.299       1.023
  C       93.593     -51.211       2.205
  N       92.393     -51.641       2.914
  C       92.551     -52.652       3.864
  O       93.649     -53.193       4.018
  N       91.457     -53.068       4.579
  C       90.287     -52.587       4.292
  N       89.240     -53.032       5.037
  C       90.056     -51.611       3.212
  C       91.143     -51.174       2.579
  O       90.713     -48.603      -2.482
  O       89.564     -49.549      -0.368
  H       93.558     -53.897       1.250
  H       88.714     -49.164      -0.699
  H       89.057     -51.282       2.973
  H       91.075     -50.457       1.773
  H       94.456     -51.351       2.870
  H       92.844     -52.042       0.343
  H       94.742     -51.213      -0.918
  H       95.088     -48.993       0.751
  H       89.444     -53.692       5.778
  H       93.128     -47.963      -0.117
  H       88.304     -52.663       4.953
  H       93.773     -48.961      -1.427
  P       97.229     -51.912      -0.130
  C       96.790     -54.213       0.901
  O       96.789     -53.442      -0.286
  O       98.610     -51.706       0.403
  O       97.088     -51.337      -1.620
  H       97.901     -51.535      -2.122
  H       96.219     -55.130       0.732
  H       96.339     -53.659       1.729
  H       97.819     -54.479       1.163
  H       90.750     -46.389       1.594
  H       91.381     -48.014       1.718
  H       89.675     -47.758       1.443

 3  4  5  6  7  8  9  10  11  12  13  23  27  28  29  30  32 0
 6-311+G(2d,p)
 ****
 34  35 0
 6-311+G(2d,p)
 ****
 1  2  14  15  16  17  18  19  20  21  22  24  25  26 0
 3-21G
 ****
 31  33  36  37  38  39  40  41  42  43  44  45  46 0
 3-21G
 ****


