%nproc=1
%NoSave
%Mem=1900MB
#P OB98/GEN NMR

erre ene a

0 1
  C     -187.958    -622.227     216.769
  O     -188.893    -623.244     217.069
  P     -188.978    -623.716     218.614
  C     -187.236    -625.660     218.417
  O     -187.561    -624.385     218.958
  C     -186.654    -626.549     219.514
  O     -185.368    -626.052     219.936
  C     -187.515    -626.638     220.765
  O     -188.556    -627.579     220.589
  C     -186.482    -627.054     221.810
  O     -186.236    -628.474     221.750
  C     -185.248    -626.256     221.371
  N     -184.238    -624.004     225.789
  C     -184.487    -625.337     225.505
  N     -184.405    -626.198     226.545
  N     -184.777    -625.783     224.314
  C     -184.834    -624.806     223.368
  C     -184.628    -623.461     223.537
  C     -184.255    -622.981     224.848
  O     -183.932    -621.833     225.137
  N     -184.790    -622.776     222.356
  C     -185.068    -623.724     221.477
  N     -185.085    -624.979     222.039
  O     -189.994    -624.953     218.551
  O     -189.414    -622.655     219.582
  H     -186.050    -628.722     220.822
  H     -190.891    -624.671     218.818
  H     -184.005    -623.726     226.723
  H     -185.239    -623.555     220.423
  H     -184.315    -626.815     221.535
  H     -186.816    -626.834     222.829
  H     -184.213    -625.922     227.491
  H     -187.917    -625.648     221.022
  H     -184.591    -627.184     226.355
  H     -186.502    -627.549     219.083
  H     -186.499    -625.529     217.613
  H     -188.135    -626.113     217.985
  P     -189.785    -627.531     221.627
  C     -188.807    -629.610     222.835
  O     -189.310    -628.295     222.953
  O     -190.860    -628.517     220.967
  O     -190.358    -626.162     221.833
  H     -191.761    -628.177     221.129
  H     -188.078    -629.774     223.632
  H     -188.306    -629.764     221.864
  H     -189.623    -630.322     222.933
  H     -187.997    -622.004     215.723
  H     -186.974    -622.560     217.027
  H     -188.196    -621.347     217.330

 3  4  5  6  7  8  9  10  11  12  23  26  30  31 0
 6-311+G(2d,p)
 ****
 33  35  36  37  38 0
 6-311+G(2d,p)
 ****
 1  2  13  14  15  16  17  18  19  20  21  22  24  25 0
 3-21G
 ****
 27  28  29  32  34  39  40  41  42  43  44  45  46  47  48  49 0
 3-21G
 ****


