%nproc=1
%NoSave
%Mem=1900MB
#P OB98/GEN NMR

erre ene a

0 1
  C     -417.171    -179.332    -246.545
  O     -415.945    -180.038    -246.601
  H     -417.902    -179.851    -247.170
  H     -417.037    -178.317    -246.930
  H     -417.540    -179.300    -245.518
  P     -414.739    -179.445    -245.725
  C     -412.650    -178.084    -246.429
  O     -414.005    -178.414    -246.711
  C     -412.016    -177.372    -247.621
  O     -411.806    -178.291    -248.709
  C     -412.856    -176.236    -248.193
  O     -412.702    -175.056    -247.423
  C     -412.235    -176.096    -249.575
  O     -411.010    -175.341    -249.484
  C     -411.924    -177.553    -249.955
  N     -413.662    -178.198    -254.742
  C     -412.747    -177.351    -254.227
  N     -412.365    -177.206    -252.941
  C     -413.038    -178.051    -252.144
  C     -414.001    -178.976    -252.528
  C     -414.303    -179.041    -253.897
  N     -415.230    -179.915    -254.423
  N     -414.472    -179.674    -251.435
  C     -413.769    -179.218    -250.419
  N     -412.912    -178.211    -250.790
  O     -413.871    -180.453    -245.055
  O     -415.533    -178.467    -244.737
  H     -410.710    -175.155    -250.393
  H     -416.256    -178.017    -245.208
  H     -412.250    -176.703    -254.944
  H     -413.829    -179.591    -249.403
  H     -410.966    -177.641    -250.480
  H     -412.887    -175.559    -250.270
  H     -413.905    -176.530    -248.300
  H     -411.029    -177.008    -247.307
  H     -412.082    -178.988    -246.190
  H     -415.509    -179.777    -255.381
  H     -415.794    -180.450    -253.779
  H     -412.648    -177.431    -245.552
  P     -413.955    -174.097    -247.139
  C     -414.159    -171.534    -247.202
  O     -413.618    -172.688    -247.833
  O     -414.365    -174.000    -245.711
  O     -415.125    -174.682    -248.057
  H     -415.981    -174.626    -247.591
  H     -413.871    -170.660    -247.749
  H     -413.787    -171.467    -246.201
  H     -415.226    -171.606    -247.182

 6  7  8  9  10  11  12  13  14  15  25  28  32  33  34  35 0
 6-311+G(2d,p)
 ****
 36  39  40 0
 6-311+G(2d,p)
 ****
 1  2  3  4  5  16  17  18  19  20  21  22  23  24 0
 3-21G
 ****
 26  27  29  30  31  37  38  41  42  43  44  45  46  47 0
 3-21G
 ****
 48 0
 3-21G
 ****


