%nproc=1
%NoSave
%Mem=1900MB
#P OB98/GEN NMR

erre ene a

0 1
  C     -296.850     -35.878     273.232
  O     -297.406     -36.350     274.453
  P     -296.637     -36.127     275.843
  C     -298.499     -34.431     276.363
  O     -297.101     -34.691     276.400
  C     -298.954     -33.784     277.669
  O     -298.189     -32.574     277.885
  C     -300.434     -33.391     277.667
  O     -300.965     -33.593     278.982
  C     -300.428     -31.894     277.378
  O     -301.605     -31.259     277.909
  C     -299.106     -31.469     278.033
  N     -297.850     -26.525     278.641
  C     -298.388     -27.423     279.495
  N     -298.718     -28.714     279.256
  C     -298.389     -29.066     278.002
  C     -297.830     -28.259     277.025
  C     -297.562     -26.926     277.378
  N     -296.998     -26.010     276.517
  N     -297.663     -28.961     275.848
  C     -298.093     -30.178     276.115
  N     -298.530     -30.292     277.411
  O     -295.160     -36.326     275.781
  O     -297.333     -37.150     276.853
  H     -301.497     -30.296     277.770
  H     -296.668     -37.539     277.451
  H     -298.583     -27.064     280.500
  H     -298.112     -31.004     275.418
  H     -299.233     -31.275     279.104
  H     -300.412     -31.730     276.296
  H     -301.024     -33.949     276.931
  H     -298.740     -34.467     278.499
  H     -299.023     -35.382     276.226
  H     -296.728     -25.113     276.892
  H     -296.620     -26.355     275.633
  H     -298.725     -33.781     275.509
  P     -302.563     -33.844     279.062
  C     -302.400     -36.435     278.866
  O     -302.797     -35.221     278.273
  O     -303.341     -32.650     278.603
  O     -302.742     -34.209     280.612
  H     -301.908     -34.569     280.991
  H     -302.610     -37.254     278.158
  H     -302.977     -36.617     279.774
  H     -301.333     -36.427     279.089
  H     -297.507     -36.121     272.423
  H     -295.899     -36.341     273.071
  H     -296.726     -34.816     273.283

 3  4  5  6  7  8  9  10  11  12  22  25  29  30  31  32 0
 6-311+G(2d,p)
 ****
 33  36  37 0
 6-311+G(2d,p)
 ****
 1  2  13  14  15  16  17  18  19  20  21  23  24  26 0
 3-21G
 ****
 27  28  34  35  38  39  40  41  42  43  44  45  46  47  48 0
 3-21G
 ****


