%nproc=1
%NoSave
%Mem=1900MB
#P OB98/GEN NMR

erre ene a

0 1
  C     -194.625     160.209    -578.068
  O     -193.748     161.336    -577.991
  P     -192.594     161.444    -579.088
  C     -192.255     163.711    -577.873
  O     -191.642     162.649    -578.609
  C     -191.207     164.494    -577.096
  O     -190.144     164.880    -577.977
  C     -191.714     165.786    -576.466
  O     -192.394     165.547    -575.243
  C     -190.401     166.525    -576.224
  O     -189.800     166.068    -575.004
  C     -189.558     166.107    -577.453
  N     -186.769     169.626    -579.792
  C     -186.440     168.798    -578.740
  N     -185.173     168.887    -578.264
  N     -187.266     167.943    -578.210
  C     -188.477     167.924    -578.798
  C     -188.944     168.711    -579.847
  C     -188.024     169.688    -580.403
  O     -188.271     170.490    -581.290
  N     -190.229     168.405    -580.195
  C     -190.543     167.405    -579.394
  N     -189.526     167.104    -578.507
  O     -193.350     162.047    -580.374
  O     -191.897     160.156    -579.416
  H     -189.572     165.131    -575.124
  H     -192.876     161.794    -581.183
  H     -186.078     170.258    -580.174
  H     -191.492     166.874    -579.410
  H     -188.530     165.873    -577.154
  H     -190.544     167.615    -576.123
  H     -184.452     169.437    -578.726
  H     -192.326     166.354    -577.171
  H     -184.904     168.255    -577.525
  H     -190.784     163.829    -576.326
  H     -192.986     163.290    -577.167
  H     -192.796     164.365    -578.576
  P     -193.844     166.239    -575.088
  C     -194.423     164.169    -573.619
  O     -194.477     165.577    -573.769
  O     -194.677     165.618    -576.293
  O     -193.823     167.737    -575.133
  H     -195.402     166.215    -576.549
  H     -193.490     163.759    -574.020
  H     -195.268     163.712    -574.142
  H     -194.493     163.923    -572.558
  H     -195.345     160.263    -577.278
  H     -194.057     159.308    -577.972
  H     -195.130     160.214    -579.012

 3  4  5  6  7  8  9  10  11  12  23  26  30  31  33  0
 6-311+G(2d,p)
 ****
 35  36  37  38 0
 6-311+G(2d,p)
 ****
 1  2  13  14  15  16  17  18  19  20  21  22  24  25  27  28  29 0
 3-21G
 ****
 32  34  39  40  41  42  43  44  45  46  47  48  49 0
 3-21G
 ****


