%nproc=1
%NoSave
%Mem=1900MB
#P OB98/GEN NMR

erre ene a

0 1
  C     -764.373    1110.508     322.966
  O     -763.693    1109.871     324.038
  P     -764.438    1108.693     324.867
  C     -763.532    1106.622     323.543
  O     -763.563    1107.361     324.767
  C     -762.149    1106.000     323.314
  O     -761.204    1107.005     322.897
  C     -761.530    1105.373     324.573
  O     -762.125    1104.099     324.857
  C     -760.071    1105.274     324.160
  O     -759.815    1104.112     323.371
  C     -759.887    1106.566     323.320
  N     -759.179    1107.622     324.069
  C     -757.808    1107.550     324.041
  O     -757.172    1106.635     323.523
  N     -757.137    1108.556     324.705
  C     -757.749    1109.570     325.425
  O     -757.100    1110.436     326.024
  C     -759.209    1109.549     325.469
  C     -759.855    1108.569     324.809
  O     -765.668    1108.343     323.904
  O     -764.899    1109.056     326.232
  H     -758.924    1104.193     323.000
  H     -766.409    1108.006     324.435
  H     -756.140    1108.542     324.701
  H     -759.724    1110.312     326.046
  H     -760.939    1108.530     324.814
  H     -759.342    1106.342     322.399
  H     -759.394    1105.226     325.051
  H     -761.632    1106.047     325.413
  H     -762.234    1105.253     322.505
  H     -763.767    1107.287     322.709
  H     -764.316    1105.836     323.592
  P     -762.366    1103.767     326.406
  C     -764.798    1102.814     326.155
  O     -763.438    1102.565     326.417
  O     -763.221    1105.059     326.875
  O     -761.110    1103.544     327.171
  H     -763.761    1105.386     326.161
  H     -764.925    1103.618     325.420
  H     -765.312    1103.061     327.074
  H     -765.240    1101.909     325.724
  H     -763.739    1111.254     322.534
  H     -765.266    1110.968     323.334
  H     -764.626    1109.782     322.222

 3  4  5  6  7  8  9  10  11  12  13  23  28  29  30  31  32 0
 6-311+G(2d,p)
 ****
 33  34 0
 6-311+G(2d,p)
 ****
 1  2  14  15  16  17  18  19  20  21  22  24  25  26 0
 3-21G
 ****
 27  35  36  37  38  39  40  41  42  43  44  45 0
 3-21G
 ****


