%nproc=1
%NoSave
%Mem=1900MB
#P OB98/GEN NMR

erre ene a

0 1
  C     -311.191    -113.152      73.624
  O     -310.804    -113.184      72.264
  H     -312.283    -113.161      73.678
  H     -310.821    -112.240      74.100
  H     -310.803    -114.029      74.149
  P     -309.228    -113.197      71.966
  C     -309.550    -114.372      69.669
  O     -309.069    -113.232      70.370
  C     -309.564    -114.084      68.170
  O     -310.717    -113.275      67.839
  C     -308.359    -113.292      67.684
  O     -307.206    -114.099      67.532
  C     -308.887    -112.734      66.372
  O     -308.762    -113.688      65.310
  C     -310.365    -112.477      66.686
  N     -310.223    -107.785      64.682
  C     -309.976    -109.001      64.149
  N     -310.048    -110.209      64.750
  C     -310.450    -110.080      66.026
  C     -310.740    -108.908      66.704
  C     -310.616    -107.713      65.976
  N     -310.842    -106.473      66.524
  N     -311.077    -109.178      68.016
  C     -311.001    -110.488      68.125
  N     -310.630    -111.076      66.948
  O     -308.786    -114.666      72.425
  O     -308.443    -112.137      72.662
  H     -309.086    -113.242      64.503
  H     -308.383    -114.621      73.314
  H     -309.670    -109.004      63.108
  H     -311.198    -111.052      69.029
  H     -311.022    -112.784      65.866
  H     -308.336    -111.838      66.081
  H     -308.157    -112.456      68.366
  H     -309.649    -115.037      67.632
  H     -310.567    -114.600      70.003
  H     -308.901    -115.226      69.893
  H     -310.667    -105.655      65.964
  H     -311.024    -106.403      67.518
  P     -305.778    -113.412      67.770
  C     -304.630    -115.416      68.982
  O     -304.690    -114.585      67.831
  O     -305.853    -112.884      69.280
  O     -305.451    -112.313      66.816
  H     -305.365    -112.043      69.363
  H     -303.853    -116.141      68.858
  H     -305.567    -115.916      69.111
  H     -304.424    -114.817      69.844

 6  7  8  9  10  11  12  13  14  15  25  28  32  33  34  35 0
 6-311+G(2d,p)
 ****
 36  37  40 0
 6-311+G(2d,p)
 ****
 1  2  3  4  5  16  17  18  19  20  21  22  23  24 0
 3-21G
 ****
 26  27  29  30  31  38  39 41  42  43  44  45  46  47  48 0
 3-21G
 ****


