%nproc=1
%NoSave
%Mem=1900MB
#P OB98/GEN NMR

erre ene a

0 1
  C     -356.647     239.937    -310.063
  O     -355.665     240.697    -309.371
  P     -354.210     240.819    -310.031
  C     -353.809     242.893    -308.532
  O     -353.324     241.641    -308.977
  C     -353.723     243.011    -307.014
  O     -352.385     242.710    -306.568
  C     -354.052     244.384    -306.455
  O     -355.439     244.606    -306.330
  C     -353.406     244.293    -305.071
  O     -354.261     243.562    -304.187
  C     -352.139     243.494    -305.371
  N     -348.231     245.842    -303.044
  C     -349.278     245.148    -302.556
  N     -350.286     244.565    -303.238
  C     -350.158     244.781    -304.563
  C     -349.154     245.504    -305.193
  C     -348.150     246.038    -304.389
  N     -347.068     246.725    -304.889
  N     -349.367     245.502    -306.558
  C     -350.460     244.798    -306.747
  N     -350.970     244.328    -305.565
  O     -354.438     241.863    -311.220
  O     -353.630     239.529    -310.519
  H     -355.029     244.135    -303.988
  H     -353.748     241.748    -311.907
  H     -349.317     245.042    -301.480
  H     -350.905     244.593    -307.712
  H     -351.900     242.780    -304.562
  H     -353.237     245.271    -304.618
  H     -353.552     245.180    -307.039
  H     -354.405     242.247    -306.577
  H     -354.851     243.018    -308.851
  H     -346.297     246.922    -304.264
  H     -346.903     246.701    -305.891
  H     -353.214     243.696    -309.008
  P     -355.998     246.021    -306.875
  C     -358.034     244.671    -307.793
  O     -357.575     245.794    -307.067
  O     -355.432     246.077    -308.368
  O     -355.588     247.190    -306.059
  H     -355.354     247.007    -308.667
  H     -359.079     244.497    -307.564
  H     -357.467     243.774    -307.524
  H     -357.927     244.863    -308.878
  H     -357.561     239.945    -309.507
  H     -356.305     238.929    -310.174
  H     -356.814     240.365    -311.029

 3  4  5  6  7  8  9  10  11  12  22  25  29  30  31  32 0
 6-311+G(2d,p)
 ****
 33  36  37 0
 6-311+G(2d,p)
 ****
 1  2  13  14  15  16  17  18  19  20  21  23  24  26 0
 3-21G
 ****
 27  28  34  35  38  39  40  41  42  43  44  45  46  47  48 0
 3-21G
 ****


