%nproc=1
%NoSave
%Mem=1900MB
#P OB98/GEN NMR

erre ene a

0 1
  C       64.028     259.688    -342.575
  O       62.916     258.822    -342.696
  H       63.789     260.514    -341.898
  H       64.868     259.126    -342.162
  H       64.313     260.079    -343.558
  P       61.578     259.454    -343.317
  C       60.135     259.198    -341.174
  O       60.356     258.789    -342.516
  C       59.204     258.212    -340.473
  O       57.852     258.393    -340.937
  C       59.529     256.742    -340.718
  O       60.599     256.297    -339.900
  C       58.214     256.092    -340.321
  O       58.132     256.000    -338.887
  C       57.185     257.102    -340.846
  N       53.741     254.263    -343.349
  C       53.976     254.443    -342.030
  N       54.896     255.231    -341.442
  C       55.611     255.898    -342.361
  C       55.477     255.836    -343.738
  C       54.488     254.967    -344.235
  N       54.306     254.741    -345.592
  N       56.402     256.653    -344.359
  C       57.096     257.179    -343.375
  N       56.650     256.760    -342.150
  O       61.503     258.775    -344.768
  O       61.560     260.943    -343.402
  H       58.880     255.441    -338.598
  H       61.878     259.387    -345.428
  H       53.342     253.871    -341.359
  H       57.924     257.862    -343.498
  H       56.336     257.226    -340.160
  H       58.099     255.079    -340.717
  H       59.719     256.541    -341.779
  H       59.220     258.442    -339.397
  H       59.680     260.192    -341.168
  H       53.942     253.814    -345.802
  H       55.055     255.084    -346.180
  H       61.099     259.242    -340.659
  P       61.847     255.588    -340.620
  C       61.380     253.566    -339.077
  O       62.358     254.441    -339.622
  O       62.985     256.705    -340.532
  O       61.609     255.164    -342.033
  H       63.325     256.907    -341.427
  H       61.856     252.856    -338.434
  H       60.881     253.050    -339.871
  H       60.667     254.133    -338.516

 6  7  8  9  10  11  12  13  14  15  25  28  32  33  34  35 0
 6-311+G(2d,p)
 ****
 36  39  40 0
 6-311+G(2d,p)
 ****
 1  2  3  4  5  16  17  18  19  20  21  22  23  24 0
 3-21G
 ****
 26  27  29  30  31  37  38  41  42  43  44  45  46  47  48 0
 3-21G
 ****


