%nproc=1
%NoSave
%Mem=1900MB
#P OB98/GEN NMR

erre ene a

0 1
  C     -231.559    -586.784       5.538
  O     -231.315    -587.560       4.384
  H     -231.376    -585.732       5.305
  H     -230.892    -587.083       6.354
  H     -232.604    -586.894       5.853
  P     -231.354    -589.157       4.499
  C     -228.798    -589.401       4.318
  O     -230.057    -589.703       3.727
  C     -227.809    -588.902       3.258
  O     -227.563    -589.977       2.310
  C     -228.312    -587.685       2.470
  O     -227.201    -586.823       2.214
  C     -228.814    -588.305       1.186
  O     -228.834    -587.368       0.122
  C     -227.860    -589.489       0.991
  N     -228.447    -590.518       0.144
  C     -227.659    -590.982      -0.919
  O     -226.522    -590.522      -1.091
  N     -228.186    -591.882      -1.803
  C     -229.425    -592.258      -1.673
  N     -229.902    -593.134      -2.599
  C     -230.303    -591.782      -0.583
  C     -229.755    -590.930       0.276
  O     -232.638    -589.810       4.104
  O     -231.006    -589.433       6.041
  H     -229.221    -586.520       0.450
  H     -231.829    -589.468       6.570
  H     -231.329    -592.122      -0.523
  H     -230.328    -590.511       1.104
  H     -226.915    -589.152       0.542
  H     -229.842    -588.671       1.325
  H     -229.099    -587.130       3.000
  H     -226.854    -588.685       3.747
  H     -229.266    -593.411      -3.351
  H     -228.413    -590.322       4.779
  H     -230.854    -593.465      -2.630
  H     -228.924    -588.643       5.095
  P     -227.065    -585.414       2.979
  C     -225.860    -584.313       1.018
  O     -225.784    -584.627       2.398
  O     -227.111    -585.510       4.473
  O     -228.307    -584.562       2.426
  H     -228.595    -583.935       3.120
  H     -224.972    -583.795       0.721
  H     -226.713    -583.691       0.840
  H     -225.952    -585.216       0.451

 6  7  8  9  10  11  12  13  14  15  16  26  30  31  32  33  35 0
 6-311+G(2d,p)
 ****
 37  38 0
 6-311+G(2d,p)
 ****
 1  2  3  4  5  17  18  19  20  21  22  23  24  25 0
 3-21G
 ****
 27  28  29  34  36  39  40  41  42  43  44  45  46 0
 3-21G
 ****


