%nproc=1
%NoSave
%Mem=1900MB
#P OB98/GEN NMR

erre ene a

0 1
  C      166.274    -126.288      75.386
  O      166.969    -125.079      75.596
  H      166.721    -126.799      74.527
  H      165.221    -126.096      75.165
  H      166.360    -126.935      76.264
  P      166.404    -124.030      76.676
  C      165.365    -122.581      74.831
  O      165.101    -123.380      75.978
  C      164.336    -121.457      74.682
  O      163.030    -122.028      74.400
  C      164.199    -120.575      75.929
  O      164.203    -119.198      75.539
  C      162.837    -120.959      76.493
  O      162.273    -119.923      77.294
  C      162.075    -121.313      75.209
  N      160.875    -122.106      75.460
  C      159.697    -121.396      75.718
  O      159.716    -120.163      75.767
  N      158.541    -122.092      75.958
  C      158.566    -123.387      75.988
  N      157.386    -124.021      76.240
  C      159.792    -124.181      75.766
  C      160.899    -123.480      75.500
  O      167.406    -123.044      77.177
  O      165.771    -124.944      77.831
  H      161.389    -120.220      77.606
  H      165.689    -124.413      78.661
  H      159.765    -125.259      75.811
  H      161.845    -123.980      75.316
  H      161.781    -120.403      74.668
  H      162.942    -121.853      77.121
  H      164.991    -120.730      76.656
  H      164.605    -120.861      73.798
  H      156.567    -123.441      76.386
  H      165.357    -123.227      73.945
  H      157.285    -125.024      76.295
  H      166.362    -122.137      74.944
  P      165.636    -118.471      75.535
  C      164.937    -117.104      77.623
  O      165.922    -117.932      77.020
  O      165.366    -117.140      74.687
  O      166.728    -119.299      74.937
  H      165.692    -117.251      73.774
  H      165.260    -116.822      78.603
  H      164.014    -117.640      77.692
  H      164.796    -116.226      77.028

 6  7  8  9  10  11  12  13  14  15  16  26  30  31  32  33  35 0
 6-311+G(2d,p)
 ****
 37  38 0
 6-311+G(2d,p)
 ****
 1  2  3  4  5  17  18  19  20  21  22  23  24  25 0
 3-21G
 ****
 27  28  29  34  36  39  40  41  42  43  44  45  46 0
 3-21G
 ****


