%nproc=1
%NoSave
%Mem=1900MB
#P OB98/GEN NMR

erre ene a

0 1
  C      247.311    -382.290    -103.304
  O      247.440    -383.678    -103.074
  H      246.430    -382.116    -103.924
  H      248.192    -381.918    -103.833
  H      247.190    -381.752    -102.358
  P      248.528    -384.149    -101.995
  C      246.886    -383.810    -100.006
  O      248.122    -383.451    -100.605
  C      247.110    -384.228     -98.555
  O      247.518    -383.054     -97.792
  C      245.862    -384.807     -97.872
  O      246.279    -385.846     -96.978
  C      245.339    -383.635     -97.062
  O      244.525    -384.015     -95.961
  C      246.650    -382.965     -96.644
  N      246.463    -381.575     -96.234
  C      246.563    -381.289     -94.875
  O      246.881    -382.101     -94.010
  N      246.280    -379.994     -94.523
  C      245.895    -378.994     -95.366
  O      245.633    -377.859     -94.985
  C      245.796    -379.360     -96.786
  C      246.077    -380.613     -97.148
  O      249.842    -383.353    -102.440
  O      248.751    -385.621    -101.909
  H      250.357    -383.876    -103.080
  H      244.165    -383.195     -95.566
  H      246.350    -379.770     -93.544
  H      245.482    -378.595     -97.484
  H      245.994    -380.922     -98.185
  H      247.123    -383.528     -95.831
  H      244.749    -382.973     -97.706
  H      245.112    -385.197     -98.567
  H      247.944    -384.937     -98.516
  H      246.448    -384.650    -100.554
  H      246.201    -382.957    -100.059
  P      246.934    -387.160     -97.630
  C      249.367    -386.198     -97.719
  O      248.223    -386.644     -98.430
  O      245.866    -387.502     -98.769
  O      247.171    -388.246     -96.635
  H      245.472    -386.711     -99.172
  H      250.122    -385.894     -98.413
  H      249.742    -386.994     -97.111
  H      249.100    -385.369     -97.097

 6  7  8  9  10  11  12  13  14  15  16  27  31  32  33  34  35 0
 6-311+G(2d,p)
 ****
 36  37 0
 6-311+G(2d,p)
 ****
 1  2  3  4  5  17  18  19  20  21  22  23  24  25 0
 3-21G
 ****
 26  28  29  30  38  39  40  41  42  43  44  45 0
 3-21G
 ****


