%nproc=1
%NoSave
%Mem=1900MB
#P OB98/GEN NMR

erre ene a

0 1
  C      150.645     354.251    -339.508
  O      152.052     354.128    -339.518
  H      150.327     354.693    -340.456
  H      150.329     354.907    -338.695
  H      150.170     353.272    -339.403
  P      152.768     353.354    -338.312
  C      154.694     352.949    -339.975
  O      154.335     353.313    -338.647
  C      156.197     352.689    -340.051
  O      156.581     351.710    -339.060
  C      156.656     352.117    -341.386
  O      156.687     353.106    -342.393
  C      158.007     351.542    -341.001
  O      159.018     352.558    -340.988
  C      157.741     351.018    -339.572
  N      157.546     349.569    -339.546
  C      158.646     348.808    -339.165
  O      159.731     349.292    -338.851
  N      158.475     347.449    -339.215
  C      157.389     346.803    -339.731
  O      157.380     345.603    -339.986
  C      156.238     347.656    -340.059
  C      156.370     348.980    -339.966
  O      152.164     352.042    -337.938
  O      152.691     354.398    -337.098
  H      151.971     354.134    -336.494
  H      159.807     352.145    -340.583
  H      159.283     346.890    -338.981
  H      155.330     347.173    -340.405
  H      155.545     349.632    -340.234
  H      158.580     351.270    -338.910
  H      158.326     350.765    -341.696
  H      155.992     351.295    -341.683
  H      156.721     353.627    -339.828
  H      154.432     353.771    -340.648
  H      154.129     352.055    -340.265
  P      156.065     352.810    -343.840
  C      155.200     355.228    -343.747
  O      155.776     354.211    -344.561
  O      154.921     351.851    -343.855
  O      157.299     352.229    -344.681
  H      157.021     351.399    -345.115
  H      155.053     356.112    -344.331
  H      155.856     355.445    -342.930
  H      154.258     354.891    -343.368

 6  7  8  9  10  11  12  13  14  15  16  27  31  32  33  34  35 0
 6-311+G(2d,p)
 ****
 36  37 0
 6-311+G(2d,p)
 ****
 1  2  3  4  5  17  18  19  20  21  22  23  24  25 0
 3-21G
 ****
 26  28  29  30  38  39  40  41  42  43  44  45 0
 3-21G
 ****


