%nproc=1
%NoSave
%Mem=1900MB
#P OB98/GEN NMR

erre ene a

0 1
  C     -603.626     165.896    -247.610
  O     -604.022     164.590    -247.982
  H     -604.321     166.271    -246.854
  H     -603.667     166.556    -248.481
  H     -602.616     165.894    -247.190
  P     -602.962     163.730    -248.825
  C     -602.903     163.015    -251.324
  O     -603.287     164.003    -250.378
  C     -602.776     163.632    -252.719
  O     -604.078     164.026    -253.217
  C     -601.906     164.889    -252.771
  O     -600.522     164.549    -252.874
  C     -602.406     165.523    -254.055
  O     -601.845     164.833    -255.193
  C     -603.919     165.256    -253.973
  N     -605.948     169.878    -254.515
  C     -605.169     169.147    -255.388
  N     -604.876     169.732    -256.574
  N     -604.706     167.946    -255.130
  C     -605.054     167.503    -253.896
  C     -605.819     168.134    -252.939
  C     -606.335     169.453    -253.254
  O     -607.049     170.133    -252.517
  N     -605.963     167.361    -251.810
  C     -605.261     166.271    -252.078
  N     -604.692     166.307    -253.331
  O     -603.462     162.225    -248.593
  O     -601.537     163.893    -248.423
  H     -600.873     164.841    -255.080
  H     -602.883     161.795    -247.936
  H     -606.279     170.801    -254.760
  H     -605.150     165.436    -251.408
  H     -604.367     165.095    -254.960
  H     -602.121     166.572    -254.149
  H     -605.178     170.664    -256.831
  H     -602.101     165.559    -251.923
  H     -604.301     169.220    -257.226
  H     -602.386     162.860    -253.402
  H     -603.657     162.222    -251.345
  H     -601.935     162.585    -251.016
  P     -599.474     165.448    -252.054
  C     -598.267     167.714    -252.420
  O     -599.164     166.753    -252.943
  O     -598.122     164.593    -252.163
  O     -599.827     165.716    -250.623
  H     -597.886     164.222    -251.285
  H     -598.160     168.519    -253.117
  H     -597.314     167.258    -252.253
  H     -598.649     168.092    -251.495

 6  7  8  9  10  11  12  13  14  15  26  29  33  34 0
 6-311+G(2d,p)
 ****
 36  38  39  40  41 0
 6-311+G(2d,p)
 ****
 1  2  3  4  5  16  17  18  19  20  21  22  23  24  25 0
 3-21G
 ****
 27  28  30  31  32  35  37  42  43  44  45  46  47 0
 3-21G
 ****
 48  49 0
 3-21G
 ****


