%nproc=1
%NoSave
%Mem=1900MB
#P OB98/GEN NMR

erre ene a

0 1
  C       -4.060      37.251      -6.957
  O       -5.313      36.600      -7.089
  P       -5.661      35.311      -6.203
  C       -7.510      36.418      -4.801
  O       -6.202      35.857      -4.794
  C       -8.214      36.160      -3.471
  O       -8.294      34.731      -3.255
  C       -7.488      36.764      -2.274
  O       -8.459      37.221      -1.329
  C       -6.739      35.594      -1.660
  O       -6.502      35.807      -0.258
  C       -7.676      34.429      -1.990
  N       -7.370      29.586      -0.317
  C       -8.225      30.587      -0.017
  N       -8.233      31.856      -0.479
  C       -7.258      32.033      -1.385
  C       -6.313      31.106      -1.796
  C       -6.390      29.827      -1.218
  N       -5.523      28.804      -1.536
  N       -5.450      31.664      -2.720
  C       -5.881      32.896      -2.876
  N       -6.977      33.164      -2.100
  O       -4.569      34.304      -6.099
  O       -6.972      34.699      -6.881
  H       -6.190      36.729      -0.156
  H       -6.937      33.724      -6.867
  H       -9.007      30.337       0.694
  H       -5.433      33.633      -3.525
  H       -8.469      34.324      -1.240
  H       -5.767      35.482      -2.152
  H       -6.820      37.586      -2.551
  H       -9.240      36.541      -3.538
  H       -8.081      35.948      -5.607
  H       -5.730      27.891      -1.165
  H       -4.908      28.930      -2.328
  H       -7.444      37.492      -5.003
  P       -8.038      38.510      -0.458
  C       -9.519      40.209      -1.760
  O       -8.222      39.750      -1.454
  O       -6.700      38.341       0.183
  O       -9.265      38.606       0.567
  H      -10.075      38.189       0.199
  H       -9.439      41.028      -2.480
  H      -10.010      40.586      -0.859
  H      -10.115      39.406      -2.202
  H       -4.018      38.084      -7.628
  H       -3.274      36.564      -7.192
  H       -3.942      37.597      -5.951

 3  4  5  6  7  8  9  10  11  12  22  25  29  30  31  32 0
 6-311+G(2d,p)
 ****
 33  36  37 0
 6-311+G(2d,p)
 ****
 1  2  13  14  15  16  17  18  19  20  21  23  24  26 0
 3-21G
 ****
 27  28  34  35  38  39  40  41  42  43  44  45  46  47  48 0
 3-21G
 ****


