%nproc=1
%NoSave
%Mem=1900MB
#P OB98/GEN NMR

erre ene a

0 1
  C     -352.753    -467.133    -266.635
  O     -353.207    -466.441    -265.465
  P     -352.175    -466.268    -264.249
  C     -353.374    -466.614    -261.963
  O     -352.972    -465.702    -262.976
  C     -354.427    -465.975    -261.053
  O     -354.038    -464.650    -260.634
  C     -355.787    -465.804    -261.713
  O     -356.538    -467.010    -261.675
  C     -356.422    -464.757    -260.813
  O     -356.922    -465.380    -259.615
  C     -355.231    -463.851    -260.480
  N     -354.918    -458.739    -260.596
  C     -355.045    -459.614    -259.573
  N     -355.142    -460.957    -259.623
  C     -355.075    -461.390    -260.889
  C     -354.946    -460.621    -262.035
  C     -354.866    -459.230    -261.856
  N     -354.729    -458.346    -262.906
  N     -354.927    -461.418    -263.161
  C     -355.029    -462.649    -262.700
  N     -355.129    -462.683    -261.337
  O     -351.284    -465.019    -264.706
  O     -351.335    -467.475    -263.989
  H     -357.363    -464.686    -259.094
  H     -350.368    -465.134    -264.392
  H     -355.077    -459.170    -258.582
  H     -355.027    -463.540    -263.313
  H     -355.261    -463.492    -259.445
  H     -357.269    -464.252    -261.288
  H     -355.680    -465.414    -262.733
  H     -354.526    -466.606    -260.158
  H     -352.506    -466.924    -261.374
  H     -354.653    -457.366    -262.694
  H     -354.668    -458.710    -263.843
  H     -353.763    -467.522    -262.436
  P     -356.580    -467.892    -263.015
  C     -359.099    -468.317    -263.479
  O     -357.901    -468.787    -262.899
  O     -355.380    -468.928    -262.802
  O     -356.426    -467.104    -264.274
  H     -354.998    -469.182    -263.664
  H     -359.795    -469.154    -263.581
  H     -358.919    -467.891    -264.469
  H     -359.549    -467.560    -262.832
  H     -353.543    -467.171    -267.356
  H     -352.463    -468.129    -266.371
  H     -351.914    -466.616    -267.052

 3  4  5  6  7  8  9  10  11  12  22  25  29  30  31  32 0
 6-311+G(2d,p)
 ****
 33  36  37 0
 6-311+G(2d,p)
 ****
 1  2  13  14  15  16  17  18  19  20  21  23  24  26 0
 3-21G
 ****
 27  28  34  35  38  39  40  41  42  43  44  45  46  47  48 0
 3-21G
 ****


