%nproc=1
%NoSave
%Mem=1900MB
#P OB98/GEN NMR

erre ene a

0 1
  C     -109.356    -463.280     595.147
  O     -109.275    -462.943     596.520
  H     -110.089    -462.623     594.668
  H     -109.679    -464.318     595.027
  H     -108.386    -463.133     594.668
  P     -108.325    -463.870     597.428
  C     -110.084    -465.801     597.508
  O     -109.364    -464.802     598.229
  C     -111.042    -466.525     598.446
  O     -110.311    -467.224     599.482
  C     -112.020    -465.614     599.190
  O     -113.104    -465.178     598.381
  C     -112.473    -466.559     600.289
  O     -113.383    -467.535     599.746
  C     -111.125    -467.209     600.689
  N     -110.445    -466.493     601.772
  C     -111.093    -466.441     603.005
  O     -112.196    -466.974     603.156
  N     -110.508    -465.754     604.036
  C     -109.350    -465.190     603.866
  N     -108.820    -464.523     604.926
  C     -108.612    -465.229     602.587
  C     -109.213    -465.899     601.595
  O     -107.812    -462.869     598.566
  O     -107.246    -464.605     596.710
  H     -114.107    -467.031     599.335
  H     -107.333    -463.372     599.268
  H     -107.661    -464.734     602.489
  H     -108.732    -465.971     600.624
  H     -111.268    -468.253     600.999
  H     -112.990    -466.053     601.100
  H     -111.507    -464.760     599.640
  H     -111.575    -467.291     597.854
  H     -109.364    -464.466     605.776
  H     -109.358    -466.511     597.087
  H     -108.002    -463.932     604.850
  H     -110.653    -465.343     596.694
  P     -113.003    -463.712     597.742
  C     -114.620    -462.706     599.522
  O     -114.352    -462.938     598.146
  O     -113.190    -463.983     596.174
  O     -111.735    -462.980     598.039
  H     -112.651    -463.360     595.653
  H     -115.549    -462.184     599.621
  H     -113.833    -462.117     599.944
  H     -114.680    -463.642     600.036

 6  7  8  9  10  11  12  13  14  15  16  26  30  31  32  33  35 0
 6-311+G(2d,p)
 ****
 37  38 0
 6-311+G(2d,p)
 ****
 1  2  3  4  5  17  18  19  20  21  22  23  24  25 0
 3-21G
 ****
 27  28  29  34  36  39  40  41  42  43  44  45  46 0
 3-21G
 ****


