%nproc=1
%NoSave
%Mem=1900MB
#P OB98/GEN NMR

erre ene a

0 1
  C      365.816     -98.997     435.328
  O      365.711     -98.900     433.921
  H      365.686    -100.040     435.615
  H      365.038     -98.399     435.807
  H      366.803     -98.662     435.661
  P      365.867     -97.456     433.236
  C      364.791     -98.484     431.112
  O      365.891     -97.772     431.655
  C      364.270     -97.780     429.865
  O      364.152     -96.356     430.079
  C      365.160     -97.902     428.634
  O      365.127     -99.186     428.031
  C      364.543     -96.829     427.753
  O      363.309     -97.303     427.198
  C      364.303     -95.702     428.787
  N      365.399     -94.731     428.832
  C      365.083     -93.421     428.452
  O      363.947     -93.122     428.100
  N      366.086     -92.471     428.451
  C      367.290     -92.815     428.778
  N      368.241     -91.839     428.753
  C      367.675     -94.189     429.162
  C      366.686     -95.086     429.176
  O      366.993     -96.611     433.741
  O      364.429     -96.775     433.404
  H      362.983     -96.611     426.590
  H      364.472     -95.872     433.008
  H      368.700     -94.423     429.397
  H      366.888     -96.118     429.433
  H      363.366     -95.172     428.572
  H      365.182     -96.541     426.915
  H      366.201     -97.609     428.868
  H      363.256     -98.157     429.665
  H      367.956     -90.903     428.481
  H      364.012     -98.550     431.879
  H      369.225     -92.026     428.918
  H      365.096     -99.495     430.832
  P      366.427    -100.117     428.217
  C      366.888    -100.860     425.750
  O      366.375    -101.198     427.030
  O      366.082    -100.957     429.529
  O      367.722     -99.376     428.320
  H      366.519    -100.564     430.310
  H      366.772    -101.693     425.088
  H      367.926    -100.614     425.835
  H      366.353    -100.019     425.362

 6  7  8  9  10  11  12  13  14  15  16  26  30  31  32  33  35 0
 6-311+G(2d,p)
 ****
 37  38 0
 6-311+G(2d,p)
 ****
 1  2  3  4  5  17  18  19  20  21  22  23  24  25 0
 3-21G
 ****
 27  28  29  34  36  39  40  41  42  43  44  45  46 0
 3-21G
 ****


