%nproc=1
%NoSave
%Mem=1900MB
#P OB98/GEN NMR

erre ene a

0 1
  C     -259.414    -801.049     536.284
  O     -260.668    -801.012     536.934
  H     -259.021    -800.034     536.224
  H     -259.520    -801.448     535.269
  H     -258.710    -801.664     536.853
  P     -261.499    -802.375     537.097
  C     -263.841    -801.324     536.832
  O     -262.927    -801.979     537.699
  C     -264.690    -800.309     537.605
  O     -265.484    -801.051     538.572
  C     -263.830    -799.296     538.385
  O     -264.179    -797.937     538.114
  C     -263.933    -799.780     539.829
  O     -263.751    -798.769     540.805
  C     -265.307    -800.460     539.870
  N     -265.440    -801.463     540.923
  C     -266.066    -801.074     542.106
  O     -266.534    -799.957     542.331
  N     -266.160    -802.051     543.072
  C     -265.691    -803.330     542.978
  O     -265.809    -804.143     543.874
  C     -265.019    -803.672     541.707
  C     -264.925    -802.747     540.758
  O     -260.793    -803.480     537.822
  O     -261.847    -802.797     535.587
  H     -264.331    -798.018     540.570
  H     -261.253    -803.514     535.301
  H     -266.605    -801.779     543.939
  H     -264.632    -804.673     541.602
  H     -264.445    -802.965     539.810
  H     -266.102    -799.724     540.021
  H     -263.155    -800.525     539.999
  H     -262.770    -799.340     538.073
  H     -265.372    -799.817     536.915
  H     -264.479    -802.089     536.373
  H     -263.280    -800.800     536.041
  P     -263.136    -796.755     537.847
  C     -263.940    -794.567     539.045
  O     -263.937    -795.360     537.869
  O     -262.186    -796.980     536.718
  O     -262.270    -796.725     539.218
  H     -261.368    -796.445     538.961
  H     -264.518    -793.683     538.877
  H     -262.936    -794.294     539.294
  H     -264.368    -795.126     539.851

 6  7  8  9  10  11  12  13  14  15  16  26  31  32  33  34  35 0
 6-311+G(2d,p)
 ****
 36  37 0
 6-311+G(2d,p)
 ****
 1  2  3  4  5  17  18  19  20  21  22  23  24  25 0
 3-21G
 ****
 27  28  29  30  38  39  40  41  42  43  44  45 0
 3-21G
 ****


