%nproc=1
%NoSave
%Mem=1900MB
#P OB98/GEN NMR

erre ene a

0 1
  C       38.846     195.060    -298.083
  O       37.989     193.991    -298.431
  H       39.773     194.968    -298.658
  H       39.090     195.034    -297.018
  H       38.374     196.015    -298.331
  P       36.674     193.756    -297.542
  C       34.965     194.405    -299.365
  O       35.519     193.351    -298.581
  C       34.360     193.867    -300.664
  O       33.733     192.591    -300.429
  C       33.262     194.746    -301.241
  O       33.725     195.982    -301.752
  C       32.518     193.787    -302.155
  O       33.087     193.686    -303.457
  C       32.686     192.440    -301.407
  N       31.434     191.991    -300.805
  C       30.458     191.562    -301.691
  O       30.592     191.565    -302.915
  N       29.277     191.156    -301.128
  C       28.975     191.189    -299.798
  O       27.880     190.848    -299.356
  C       30.039     191.677    -298.910
  C       31.204     192.052    -299.445
  O       36.298     194.880    -296.625
  O       36.973     192.382    -296.781
  H       32.962     194.550    -303.894
  H       36.366     192.259    -296.009
  H       28.558     190.828    -301.753
  H       29.833     191.721    -297.849
  H       32.009     192.421    -298.809
  H       33.020     191.663    -302.106
  H       31.474     194.084    -302.286
  H       32.569     194.999    -300.428
  H       35.171     193.716    -301.386
  H       35.775     195.101    -299.606
  H       34.206     194.937    -298.778
  P       32.796     197.276    -301.885
  C       35.067     198.509    -302.200
  O       33.682     198.464    -302.519
  O       31.906     197.585    -300.727
  O       31.847     196.859    -303.125
  H       30.971     197.253    -302.965
  H       35.519     199.346    -302.690
  H       35.538     197.606    -302.528
  H       35.186     198.609    -301.141

 6  7  8  9  10  11  12  13  14  15  16  26  31  32  33  34  35 0
 6-311+G(2d,p)
 ****
 36  37 0
 6-311+G(2d,p)
 ****
 1  2  3  4  5  17  18  19  20  21  22  23  24  25 0
 3-21G
 ****
 27  28  29  30  38  39  40  41  42  43  44  45 0
 3-21G
 ****


