%nproc=1
%NoSave
%Mem=1900MB
#P OB98/GEN NMR

erre ene a

0 1
  C     -336.517       0.658     597.021
  O     -336.944       0.156     598.306
  P     -338.149      -0.908     598.305
  C     -338.877       0.117     600.609
  O     -338.590      -1.041     599.844
  C     -339.095      -0.272     602.079
  O     -340.323      -1.029     602.221
  C     -338.000      -1.124     602.660
  O     -336.820      -0.372     602.936
  C     -338.687      -1.685     603.897
  O     -338.670      -0.707     604.965
  C     -340.149      -1.874     603.389
  N     -340.464      -3.267     603.097
  C     -340.536      -4.109     604.204
  O     -340.330      -3.731     605.353
  N     -340.860      -5.415     603.926
  C     -341.071      -5.962     602.706
  O     -341.357      -7.127     602.512
  C     -340.922      -5.030     601.565
  C     -340.643      -3.746     601.809
  O     -337.355      -2.257     597.980
  O     -339.232      -0.568     597.342
  H     -336.472      -2.292     598.386
  H     -337.798      -0.790     605.406
  H     -340.939      -6.040     604.724
  H     -341.057      -5.429     600.573
  H     -340.527      -3.040     600.977
  H     -340.863      -1.503     604.132
  H     -338.223      -2.593     604.273
  H     -337.756      -1.949     601.967
  H     -339.199       0.666     602.648
  H     -339.768       0.615     600.223
  H     -338.051       0.819     600.493
  P     -335.409      -1.113     602.705
  C     -333.867      -0.227     604.633
  O     -334.294      -0.126     603.278
  O     -335.246      -0.991     601.115
  O     -335.365      -2.520     603.225
  H     -335.489      -0.097     600.774
  H     -332.889       0.256     604.735
  H     -333.791      -1.264     604.941
  H     -334.580       0.296     605.268
  H     -335.715       1.353     597.158
  H     -337.337       1.150     596.540
  H     -336.183      -0.157     596.413

 3  4  5  6  7  8  9  10  11  12  13  24  28  29  30  31  32 0
 6-311+G(2d,p)
 ****
 33  34 0
 6-311+G(2d,p)
 ****
 1  2  14  15  16  17  18  19  20  21  22  23  25  26  27 0
 3-21G
 ****
 35  36  37  38  39  40  41  42  43  44  45 0
 3-21G
 ****


