%nproc=1
%NoSave
%Mem=1900MB
#P OB98/GEN NMR

erre ene a

0 1
  C      -98.618     -38.388     169.355
  O      -97.978     -39.646     169.291
  H      -97.856     -37.609     169.420
  H      -99.250     -38.333     170.245
  H      -99.221     -38.211     168.460
  P      -98.860     -40.947     168.985
  C      -98.028     -40.765     166.551
  O      -99.147     -40.953     167.408
  C      -98.479     -40.793     165.093
  O      -97.523     -40.100     164.263
  C      -98.596     -42.196     164.507
  O      -99.769     -42.839     164.966
  C      -98.578     -41.880     163.018
  O      -99.870     -41.443     162.573
  C      -97.551     -40.722     162.961
  N      -96.215     -41.158     162.557
  C      -95.692     -40.565     161.409
  O      -96.315     -39.748     160.732
  N      -94.429     -40.961     161.058
  C      -93.692     -41.928     161.675
  O      -92.584     -42.286     161.285
  C      -94.308     -42.544     162.858
  C      -95.522     -42.137     163.240
  O     -100.070     -41.131     169.843
  O      -97.823     -42.155     169.166
  H      -99.805     -41.314     161.605
  H      -97.950     -42.569     170.039
  H      -94.039     -40.552     160.224
  H      -93.757     -43.319     163.371
  H      -95.997     -42.581     164.108
  H      -97.889     -39.954     162.252
  H      -98.312     -42.744     162.407
  H      -97.705     -42.785     164.750
  H      -99.435     -40.261     165.021
  H      -97.310     -41.575     166.727
  H      -97.554     -39.810     166.792
  P      -99.833     -44.434     165.087
  C      -99.518     -44.417     167.627
  O      -98.987     -44.856     166.384
  O      -99.480     -45.181     163.844
  O     -101.342     -44.727     165.527
  H     -101.844     -45.093     164.770
  H      -98.884     -44.748     168.423
  H     -100.499     -44.824     167.760
  H      -99.571     -43.348     167.635

 6  7  8  9  10  11  12  13  14  15  16  26  31  32  33  34  35 0
 6-311+G(2d,p)
 ****
 36  37 0
 6-311+G(2d,p)
 ****
 1  2  3  4  5  17  18  19  20  21  22  23  24  25 0
 3-21G
 ****
 27  28  29  30  38  39  40  41  42  43  44  45 0
 3-21G
 ****


