%nproc=1
%NoSave
%Mem=1900MB
#P OB98/GEN NMR

erre ene a

0 1
  C      379.237    -264.893    -753.531
  O      377.911    -264.418    -753.762
  P      377.534    -262.962    -753.190
  C      376.944    -263.797    -750.763
  O      377.771    -263.000    -751.602
  C      377.500    -263.837    -749.330
  O      377.453    -262.503    -748.769
  C      376.712    -264.720    -748.353
  O      377.556    -265.012    -747.227
  C      375.607    -263.789    -747.934
  O      374.980    -264.219    -746.726
  C      376.323    -262.424    -747.855
  N      375.465    -261.270    -748.213
  C      374.590    -260.775    -747.256
  O      374.488    -261.221    -746.116
  N      373.785    -259.728    -747.650
  C      373.799    -259.140    -748.880
  O      372.989    -258.272    -749.213
  C      374.836    -259.613    -749.811
  C      375.589    -260.644    -749.445
  O      375.947    -262.902    -753.352
  O      378.224    -261.845    -753.892
  H      375.702    -264.307    -746.057
  H      375.706    -262.319    -754.092
  H      373.104    -259.401    -746.990
  H      374.918    -259.109    -750.769
  H      376.355    -261.015    -750.137
  H      376.711    -262.231    -746.840
  H      374.829    -263.753    -748.708
  H      376.330    -265.650    -748.786
  H      378.550    -264.151    -749.357
  H      376.868    -264.800    -751.181
  H      375.931    -263.378    -750.746
  P      378.678    -266.146    -747.400
  C      377.170    -268.086    -746.639
  O      377.887    -267.519    -747.713
  O      379.702    -266.222    -746.322
  O      379.328    -265.796    -748.825
  H      380.203    -266.210    -748.903
  H      376.322    -268.642    -747.041
  H      376.801    -267.325    -745.945
  H      377.822    -268.781    -746.100
  H      379.348    -265.866    -753.962
  H      379.418    -264.947    -752.478
  H      379.939    -264.222    -753.980

 3  4  5  6  7  8  9  10  11  12  13  23  28  29  30  31  32 0
 6-311+G(2d,p)
 ****
 33  34 0
 6-311+G(2d,p)
 ****
 1  2  14  15  16  17  18  19  20  21  22  24  25  26  27 0
 3-21G
 ****
 35  36  37  38  39  40  41  42  43  44  45 0
 3-21G
 ****


