%nproc=1
%NoSave
%Mem=1900MB
#P OB98/GEN NMR

erre ene a

0 1
  C       -9.627    -251.773    -330.606
  O       -8.719    -251.447    -329.539
  P       -9.300    -251.157    -328.066
  C       -8.364    -251.777    -325.698
  O       -8.101    -251.284    -327.008
  C       -7.201    -252.647    -325.212
  O       -7.096    -253.840    -326.028
  C       -5.830    -251.987    -325.305
  O       -5.625    -251.045    -324.268
  C       -4.910    -253.192    -325.229
  O       -4.702    -253.594    -323.864
  C       -5.718    -254.260    -325.995
  N       -5.198    -254.510    -327.342
  C       -4.779    -255.803    -327.612
  O       -4.767    -256.705    -326.778
  N       -4.328    -256.030    -328.892
  C       -4.196    -255.082    -329.881
  O       -3.770    -255.342    -330.990
  C       -4.585    -253.709    -329.498
  C       -5.057    -253.490    -328.268
  O      -10.148    -252.486    -327.777
  O      -10.163    -249.944    -327.940
  H       -4.465    -254.548    -323.895
  H      -10.869    -252.282    -327.162
  H       -4.047    -256.959    -329.122
  H       -4.471    -252.930    -330.239
  H       -5.345    -252.482    -327.975
  H       -5.707    -255.216    -325.442
  H       -3.913    -252.996    -325.661
  H       -5.717    -251.507    -326.280
  H       -7.418    -252.952    -324.180
  H       -9.284    -252.372    -325.717
  H       -8.503    -250.923    -325.025
  P       -5.841    -249.500    -324.641
  C       -7.053    -247.535    -323.408
  O       -6.518    -248.840    -323.342
  O       -7.025    -249.606    -325.714
  O       -4.598    -248.834    -325.139
  H       -7.637    -250.340    -325.518
  H       -7.462    -247.315    -324.389
  H       -6.254    -246.809    -323.170
  H       -7.851    -247.444    -322.650
  H       -9.074    -251.933    -331.508
  H      -10.315    -250.966    -330.748
  H      -10.167    -252.662    -330.356

 3  4  5  6  7  8  9  10  11  12  13  23  28  29  30  31  32 0
 6-311+G(2d,p)
 ****
 33  34 0
 6-311+G(2d,p)
 ****
 1  2  14  15  16  17  18  19  20  21  22  24  25  26 0
 3-21G
 ****
 27  35  36  37  38  39  40  41  42  43  44  45 0
 3-21G
 ****


