%nproc=1
%NoSave
%Mem=1900MB
#P OB98/GEN NMR

erre ene a

0 1
  C     -506.367    -703.687    -381.335
  O     -507.728    -704.028    -381.614
  P     -508.207    -704.085    -383.140
  C     -510.421    -705.273    -382.538
  O     -509.812    -704.155    -383.173
  C     -511.863    -704.961    -382.142
  O     -511.892    -703.740    -381.361
  C     -512.815    -704.704    -383.325
  O     -513.495    -705.821    -383.896
  C     -513.886    -703.829    -382.666
  O     -514.854    -704.667    -381.995
  C     -513.112    -703.012    -381.649
  N     -513.108    -698.059    -380.359
  C     -513.465    -699.169    -379.683
  N     -513.436    -700.446    -380.096
  C     -512.966    -700.533    -381.351
  C     -512.567    -699.491    -382.166
  C     -512.654    -698.197    -381.634
  N     -512.294    -697.064    -382.326
  N     -512.148    -699.965    -383.403
  C     -512.321    -701.270    -383.334
  N     -512.794    -701.665    -382.104
  O     -507.502    -705.077    -384.005
  O     -507.927    -702.589    -383.648
  H     -515.463    -704.974    -382.682
  H     -507.609    -702.626    -384.571
  H     -513.821    -699.009    -378.666
  H     -512.116    -701.966    -384.141
  H     -513.649    -702.901    -380.701
  H     -514.453    -703.245    -383.401
  H     -512.313    -704.135    -384.119
  H     -512.267    -705.774    -381.519
  H     -509.847    -705.541    -381.645
  H     -512.432    -696.170    -381.874
  H     -512.011    -697.146    -383.290
  H     -510.338    -706.123    -383.218
  P     -512.919    -706.582    -385.193
  C     -514.355    -708.720    -384.694
  O     -514.034    -707.660    -385.583
  O     -511.540    -707.127    -385.050
  O     -513.083    -705.471    -386.338
  H     -513.993    -705.263    -386.575
  H     -515.262    -709.215    -385.047
  H     -514.517    -708.344    -383.686
  H     -513.527    -709.456    -384.698
  H     -506.208    -703.692    -380.277
  H     -506.157    -702.712    -381.722
  H     -505.718    -704.402    -381.797

 3  4  5  6  7  8  9  10  11  12  22  25  29  30  31  32 0
 6-311+G(2d,p)
 ****
 33  36  37 0
 6-311+G(2d,p)
 ****
 1  2  13  14  15  16  17  18  19  20  21  23  24  26 0
 3-21G
 ****
 27  28  34  35  38  39  40  41  42  43  44  45  46  47  48 0
 3-21G
 ****


