%nproc=1
%NoSave
%Mem=1900MB
#P OB98/GEN NMR

erre ene a

0 1
  C       22.329     104.712     124.115
  O       22.273     105.388     125.348
  H       21.488     105.046     123.499
  H       22.236     103.633     124.264
  H       23.259     104.941     123.586
  P       23.373     105.060     126.476
  C       21.611     103.381     127.305
  O       22.549     104.382     127.685
  C       20.438     103.330     128.282
  O       20.920     102.951     129.604
  C       19.693     104.668     128.425
  O       18.280     104.448     128.344
  C       20.060     105.132     129.831
  O       19.097     106.021     130.392
  C       20.219     103.781     130.545
  N       20.925     103.914     131.809
  C       20.131     104.024     132.955
  O       18.903     104.002     132.862
  N       20.737     104.212     134.170
  C       22.031     104.331     134.227
  N       22.571     104.545     135.460
  C       22.907     104.248     133.041
  C       22.296     104.036     131.875
  O       24.229     106.218     126.866
  O       24.207     103.826     125.886
  H       19.412     106.307     131.276
  H       25.092     103.800     126.327
  H       23.979     104.354     133.145
  H       22.855     103.960     130.949
  H       19.234     103.322     130.736
  H       21.023     105.649     129.798
  H       19.981     105.406     127.677
  H       19.757     102.528     127.962
  H       21.933     104.598     136.247
  H       22.127     102.411     127.271
  H       23.556     104.672     135.628
  H       21.238     103.623     126.304
  P       17.580     104.845     126.957
  C       16.761     106.909     128.299
  O       16.483     105.976     127.263
  O       16.718     103.544     126.593
  O       18.559     105.170     125.868
  H       17.104     103.090     125.825
  H       15.946     107.597     128.387
  H       17.657     107.445     128.065
  H       16.889     106.387     129.224

 6  7  8  9  10  11  12  13  14  15  16  26  30  31  32  33  35 0
 6-311+G(2d,p)
 ****
 37  38 0
 6-311+G(2d,p)
 ****
 1  2  3  4  5  17  18  19  20  21  22  23  24  25 0
 3-21G
 ****
 27  28  29  34  36  39  40  41  42  43  44  45  46 0
 3-21G
 ****


