%nproc=1
%NoSave
%Mem=1900MB
#P OB98/GEN NMR

erre ene a

0 1
  C     -288.655     512.753    -305.694
  O     -288.105     512.870    -304.398
  H     -289.555     512.126    -305.640
  H     -287.939     512.283    -306.375
  H     -288.936     513.739    -306.076
  P     -286.713     513.668    -304.285
  C     -284.252     512.865    -304.577
  O     -285.626     512.605    -304.797
  C     -283.404     512.029    -305.540
  O     -283.348     510.655    -305.106
  C     -283.949     511.983    -306.965
  O     -283.652     513.153    -307.713
  C     -283.207     510.773    -307.500
  O     -281.843     511.129    -307.786
  C     -283.289     509.817    -306.288
  N     -284.446     508.916    -306.344
  C     -284.185     507.549    -306.456
  O     -283.026     507.138    -306.515
  N     -285.243     506.672    -306.535
  C     -286.461     507.121    -306.495
  N     -287.464     506.211    -306.589
  C     -286.786     508.554    -306.358
  C     -285.751     509.381    -306.285
  O     -286.435     513.715    -302.707
  O     -286.676     514.999    -304.954
  H     -281.437     510.354    -308.226
  H     -285.532     514.081    -302.535
  H     -287.819     508.883    -306.332
  H     -285.908     510.455    -306.192
  H     -282.386     509.200    -306.216
  H     -283.638     510.377    -308.422
  H     -285.022     511.771    -306.981
  H     -282.378     512.422    -305.517
  H     -287.219     505.240    -306.745
  H     -284.008     512.602    -303.545
  H     -288.428     506.477    -306.747
  H     -284.040     513.925    -304.736
  P     -284.550     513.456    -309.006
  C     -284.609     512.538    -311.440
  O     -284.209     512.322    -310.091
  O     -283.857     514.760    -309.632
  O     -286.004     513.675    -308.733
  H     -284.528     515.382    -309.975
  H     -284.314     511.701    -312.038
  H     -284.142     513.425    -311.813
  H     -285.672     512.650    -311.483

 6  7  8  9  10  11  12  13  14  15  16  26  30  31  32  33  35 0
 6-311+G(2d,p)
 ****
 37  38 0
 6-311+G(2d,p)
 ****
 1  2  3  4  5  17  18  19  20  21  22  23  24  25 0
 3-21G
 ****
 27  28  29  34  36  39  40  41  42  43  44  45  46 0
 3-21G
 ****


