%nproc=1
%NoSave
%Mem=1900MB
#P OB98/GEN NMR

erre ene a

0 1
  C      472.820     255.100      41.914
  O      472.721     256.246      42.740
  P      471.248     256.780      43.090
  C      472.390     257.987      45.088
  O      471.456     258.068      44.015
  C      472.698     259.379      45.631
  O      471.483     260.022      46.059
  C      473.612     259.382      46.846
  O      474.955     259.176      46.462
  C      473.337     260.764      47.425
  O      474.177     261.757      46.809
  C      471.852     260.996      47.059
  N      470.975     260.927      48.217
  C      471.111     261.965      49.147
  O      471.949     262.850      48.965
  N      470.326     261.950      50.270
  C      469.482     260.978      50.453
  N      468.724     261.018      51.582
  C      469.322     259.857      49.508
  C      470.097     259.890      48.426
  O      470.690     255.673      44.102
  O      470.355     256.967      41.905
  H      475.038     261.314      46.651
  H      469.716     255.636      44.072
  H      468.606     259.074      49.706
  H      470.045     259.104      47.678
  H      471.723     261.981      46.595
  H      473.536     260.804      48.502
  H      473.298     258.615      47.563
  H      473.135     259.978      44.821
  H      468.862     261.795      52.214
  H      473.319     257.540      44.723
  H      468.025     260.325      51.803
  H      471.977     257.345      45.871
  P      475.814     258.108      47.288
  C      476.630     257.685      44.895
  O      476.948     257.616      46.272
  O      474.828     256.843      47.331
  O      476.272     258.508      48.650
  H      475.203     256.148      47.904
  H      477.531     257.473      44.315
  H      476.269     258.685      44.635
  H      475.869     256.939      44.649
  H      473.851     254.857      41.763
  H      472.359     255.300      40.969
  H      472.325     254.277      42.385

 3  4  5  6  7  8  9  10  11  12  13  21  23  27  28  29  30  32 0
 6-311+G(2d,p)
 ****
 34  35 0
 6-311+G(2d,p)
 ****
 1  2  14  15  16  17  18  19  20  22  24  25  26 0
 3-21G
 ****
 31  33  36  37  38  39  40  41  42  43  44  45  46 0
 3-21G
 ****


