%nproc=1
%NoSave
%Mem=1900MB
#P OB98/GEN NMR

erre ene a

0 1
  C     -411.206     651.581     420.345
  O     -410.889     651.879     419.001
  H     -412.291     651.511     420.439
  H     -410.846     652.378     421.000
  H     -410.763     650.620     420.640
  P     -409.352     652.076     418.570
  C     -408.098     652.330     416.344
  O     -409.366     652.200     416.962
  C     -407.856     651.204     415.342
  O     -407.586     649.964     416.066
  C     -409.040     650.935     414.406
  O     -408.591     650.825     413.051
  C     -409.586     649.593     414.869
  O     -410.301     648.894     413.861
  C     -408.292     648.925     415.361
  N     -408.555     647.759     416.206
  C     -408.902     646.576     415.543
  O     -408.974     646.559     414.309
  N     -409.224     645.479     416.284
  C     -409.252     645.555     417.580
  N     -409.610     644.432     418.260
  C     -408.913     646.792     418.321
  C     -408.577     647.842     417.586
  O     -408.418     651.041     419.111
  O     -408.985     653.561     419.046
  H     -410.550     648.015     414.211
  H     -408.006     653.635     419.146
  H     -408.952     646.806     419.404
  H     -408.324     648.791     418.030
  H     -407.667     648.598     414.514
  H     -410.261     649.754     415.723
  H     -409.814     651.712     414.453
  H     -406.939     651.429     414.772
  H     -409.827     643.610     417.718
  H     -407.322     652.326     417.127
  H     -409.681     644.378     419.267
  H     -408.063     653.293     415.816
  P     -408.940     652.059     412.074
  C     -407.734     653.276     410.117
  O     -407.834     652.097     410.913
  O     -408.614     653.349     412.966
  O     -410.359     652.060     411.610
  H     -409.446     653.792     413.213
  H     -406.958     653.151     409.391
  H     -407.505     654.112     410.745
  H     -408.665     653.449     409.618

 6  7  8  9  10  11  12  13  14  15  16  26  30  31  32  33  35 0
 6-311+G(2d,p)
 ****
 37  38 0
 6-311+G(2d,p)
 ****
 1  2  3  4  5  17  18  19  20  21  22  23  24  25 0
 3-21G
 ****
 27  28  29  34  36  39  40  41  42  43  44  45  46 0
 3-21G
 ****


