%nproc=1
%NoSave
%Mem=1900MB
#P OB98/GEN NMR

erre ene a

0 1
  C      166.844    1106.283    -150.552
  O      166.925    1107.199    -149.484
  H      167.848    1106.130    -150.957
  H      166.211    1106.684    -151.347
  H      166.451    1105.320    -150.211
  P      165.582    1107.463    -148.639
  C      166.038    1105.461    -147.042
  O      165.164    1106.042    -147.996
  C      165.257    1104.607    -146.041
  O      164.760    1103.422    -146.729
  C      166.084    1104.141    -144.841
  O      165.255    1104.183    -143.683
  C      166.427    1102.699    -145.167
  O      166.690    1101.911    -144.012
  C      165.197    1102.265    -145.975
  N      165.511    1101.136    -146.864
  C      165.500    1099.872    -146.275
  O      165.252    1099.733    -145.076
  N      165.830    1098.778    -147.052
  C      166.215    1098.959    -148.276
  N      166.559    1097.853    -148.979
  C      166.305    1100.286    -148.913
  C      165.931    1101.325    -148.159
  O      164.473    1107.692    -149.757
  O      165.658    1108.582    -147.659
  H      165.908    1101.964    -143.424
  H      163.786    1108.316    -149.456
  H      166.659    1100.395    -149.932
  H      165.967    1102.345    -148.536
  H      164.378    1101.975    -145.313
  H      167.331    1102.675    -145.808
  H      166.972    1104.754    -144.673
  H      164.376    1105.181    -145.722
  H      166.506    1096.962    -148.507
  H      166.557    1106.253    -146.496
  H      166.917    1097.875    -149.931
  H      166.785    1104.841    -147.561
  P      165.621    1105.277    -142.563
  C      163.961    1107.173    -143.188
  O      165.305    1106.728    -143.163
  O      167.214    1105.214    -142.494
  O      164.995    1104.994    -141.234
  H      167.496    1104.801    -141.661
  H      163.918    1108.153    -143.615
  H      163.576    1107.201    -142.190
  H      163.374    1106.501    -143.778

 6  7  8  9  10  11  12  13  14  15  16  26  30  31  32  33  35 0
 6-311+G(2d,p)
 ****
 37  38 0
 6-311+G(2d,p)
 ****
 1  2  3  4  5  17  18  19  20  21  22  23  24  25 0
 3-21G
 ****
 27  28  29  34  36  39  40  41  42  43  44  45  46 0
 3-21G
 ****


