%nproc=1
%NoSave
%Mem=1900MB
#P OB98/GEN NMR

erre ene a

0 1
  C       80.357    -346.937      71.972
  O       80.787    -346.446      73.223
  H       81.233    -347.274      71.409
  H       79.868    -346.135      71.415
  H       79.668    -347.779      72.085
  P       79.719    -346.319      74.408
  C       81.433    -344.884      75.709
  O       80.084    -345.010      75.270
  C       81.893    -343.426      75.704
  O       82.103    -342.991      74.341
  C       80.858    -342.479      76.314
  O       80.955    -342.333      77.726
  C       81.176    -341.164      75.604
  O       82.183    -340.417      76.310
  C       81.706    -341.617      74.235
  N       80.333    -339.177      69.953
  C       81.370    -338.884      70.824
  N       82.095    -337.786      70.530
  N       81.638    -339.598      71.887
  C       80.764    -340.606      72.105
  C       79.690    -340.978      71.321
  C       79.443    -340.229      70.103
  O       78.554    -340.461      69.292
  N       78.999    -342.033      71.880
  C       79.605    -342.232      73.035
  N       80.726    -341.444      73.179
  O       80.126    -347.510      75.405
  O       78.283    -346.440      73.999
  H       81.825    -340.183      77.191
  H       79.329    -347.841      75.858
  H       80.192    -338.612      69.136
  H       79.298    -342.956      73.780
  H       82.594    -341.042      73.944
  H       80.288    -340.523      75.554
  H       81.879    -337.155      69.775
  H       79.845    -342.781      76.032
  H       82.741    -337.431      71.243
  H       82.860    -343.351      76.215
  H       82.036    -345.474      75.019
  H       81.551    -345.316      76.702
  P       80.031    -343.197      78.701
  C       79.926    -341.199      80.400
  O       79.248    -342.198      79.669
  O       81.086    -343.902      79.673
  O       79.138    -344.193      78.030
  H       81.263    -344.816      79.383
  H       79.221    -340.643      80.982
  H       80.428    -340.540      79.723
  H       80.643    -341.657      81.049

 6  7  8  9  10  11  12  13  14  15  26  29  33  34 0
 6-311+G(2d,p)
 ****
 36  38  39  40  41 0
 6-311+G(2d,p)
 ****
 1  2  3  4  5  16  17  18  19  20  21  22  23  24  25 0
 3-21G
 ****
 27  28  30  31  32  35  37  42  43  44  45  46  47 0
 3-21G
 ****
 48  49 0
 3-21G
 ****


