%nproc=1
%NoSave
%Mem=1900MB
#P OB98/GEN NMR

erre ene a

0 1
  C     -257.426     747.125     163.288
  O     -258.099     747.259     164.521
  H     -256.911     746.162     163.265
  H     -256.682     747.922     163.179
  H     -258.133     747.170     162.453
  P     -259.083     748.518     164.675
  C     -261.057     746.943     165.273
  O     -260.262     748.055     165.661
  C     -262.330     746.879     166.132
  O     -262.924     748.194     166.239
  C     -263.410     745.963     165.571
  O     -263.187     744.601     165.908
  C     -264.641     746.514     166.291
  O     -264.649     746.042     167.652
  C     -264.368     748.030     166.259
  N     -268.657     749.247     163.850
  C     -268.468     748.524     165.013
  N     -269.578     748.043     165.621
  N     -267.294     748.278     165.532
  C     -266.270     748.810     164.813
  C     -266.341     749.545     163.651
  C     -267.640     749.811     163.086
  O     -267.865     750.463     162.080
  N     -265.094     749.914     163.222
  C     -264.267     749.390     164.117
  N     -264.940     748.701     165.096
  O     -259.812     748.592     163.247
  O     -258.427     749.813     165.016
  H     -264.847     745.081     167.621
  H     -259.960     749.531     163.020
  H     -269.586     749.389     163.480
  H     -263.190     749.476     164.095
  H     -264.754     748.539     167.144
  H     -265.573     746.197     165.830
  H     -270.504     748.148     165.243
  H     -263.541     746.107     164.487
  H     -269.466     747.541     166.494
  H     -262.033     746.565     167.135
  H     -260.488     746.019     165.411
  H     -261.327     747.052     164.211
  P     -263.466     743.493     164.781
  C     -261.757     742.027     166.056
  O     -263.018     742.098     165.426
  O     -262.322     743.788     163.699
  O     -264.833     743.540     164.175
  H     -262.596     743.447     162.817
  H     -261.603     741.038     166.435
  H     -261.722     742.728     166.864
  H     -260.990     742.261     165.347

 6  7  8  9  10  11  12  13  14  15  26  29  33  34 0
 6-311+G(2d,p)
 ****
 36  38  39  40  41 0
 6-311+G(2d,p)
 ****
 1  2  3  4  5  16  17  18  19  20  21  22  23  24  25 0
 3-21G
 ****
 27  28  30  31  32  35  37  42  43  44  45  46  47 0
 3-21G
 ****
 48  49 0
 3-21G
 ****


