%nproc=1
%NoSave
%Mem=1900MB
#P OB98/GEN NMR

erre ene a

0 1
  C     -129.652      41.588    -261.571
  O     -130.315      42.802    -261.871
  P     -130.060      43.565    -263.253
  C     -128.303      45.167    -264.210
  O     -128.590      44.204    -263.204
  C     -126.798      45.396    -264.346
  O     -126.324      46.161    -263.207
  C     -125.969      44.108    -264.425
  O     -124.909      44.343    -265.358
  C     -125.421      43.967    -263.018
  O     -124.255      43.156    -262.970
  C     -125.211      45.438    -262.644
  N     -125.118      45.640    -261.207
  C     -123.916      46.159    -260.720
  O     -122.953      46.302    -261.472
  N     -123.836      46.490    -259.388
  C     -124.800      46.148    -258.589
  N     -124.712      46.552    -257.292
  C     -125.975      45.372    -259.032
  C     -126.091      45.192    -260.346
  O     -131.136      44.517    -263.657
  O     -129.905      42.388    -264.329
  H     -130.525      42.548    -265.069
  H     -123.509      43.652    -263.368
  H     -126.686      45.002    -258.309
  H     -126.933      44.658    -260.773
  H     -124.301      45.830    -263.116
  H     -126.179      43.510    -262.372
  H     -126.557      43.245    -264.755
  H     -126.628      46.009    -265.241
  H     -123.911      47.117    -257.032
  H     -128.783      46.104    -263.930
  H     -125.531      46.616    -256.688
  H     -128.731      44.843    -265.167
  P     -124.401      43.113    -266.260
  C     -122.008      42.153    -266.567
  O     -122.995      42.619    -265.670
  O     -123.950      43.868    -267.606
  O     -125.409      42.060    -266.583
  H     -123.998      43.241    -268.351
  H     -121.151      41.796    -265.988
  H     -121.674      42.965    -267.220
  H     -122.394      41.326    -267.170
  H     -129.959      41.243    -260.606
  H     -128.594      41.749    -261.572
  H     -129.902      40.854    -262.308

 3  4  5  6  7  8  9  10  11  12  13  24  27  28  29  30  32 0
 6-311+G(2d,p)
 ****
 34  35 0
 6-311+G(2d,p)
 ****
 1  2  14  15  16  17  18  19  20  21  22  23  25  26 0
 3-21G
 ****
 31  33  36  37  38  39  40  41  42  43  44  45  46 0
 3-21G
 ****


