%nproc=1
%NoSave
%Mem=1900MB
#P OB98/GEN NMR

erre ene a

0 1
  C      -91.077    -185.361     -21.544
  O      -90.855    -186.745     -21.356
  H      -90.117    -184.841     -21.503
  H      -91.716    -184.980     -20.743
  H      -91.540    -185.170     -22.516
  P      -92.073    -187.729     -21.705
  C      -90.428    -189.062     -23.205
  O      -91.417    -189.112     -22.187
  C      -89.942    -190.470     -23.537
  O      -89.146    -190.997     -22.457
  C      -91.060    -191.480     -23.783
  O      -91.546    -191.410     -25.119
  C      -90.319    -192.784     -23.543
  O      -89.502    -193.099     -24.690
  C      -89.421    -192.423     -22.347
  N      -89.753    -195.738     -18.523
  C      -89.093    -195.844     -19.730
  N      -88.434    -197.002     -19.957
  N      -89.082    -194.905     -20.639
  C      -89.804    -193.811     -20.289
  C      -90.505    -193.593     -19.123
  C      -90.493    -194.634     -18.123
  O      -91.054    -194.584     -17.030
  N      -91.112    -192.364     -19.126
  C      -90.800    -191.853     -20.299
  N      -90.008    -192.694     -21.045
  O      -92.663    -187.095     -23.054
  O      -93.124    -187.838     -20.650
  H      -90.100    -193.421     -25.389
  H      -93.474    -186.596     -22.838
  H      -89.738    -196.496     -17.860
  H      -91.111    -190.878     -20.654
  H      -88.458    -192.947     -22.379
  H      -90.991    -193.630     -23.388
  H      -88.420    -197.774     -19.307
  H      -91.871    -191.375     -23.051
  H      -87.941    -197.101     -20.835
  H      -89.288    -190.399     -24.417
  H      -89.586    -188.460     -22.855
  H      -90.861    -188.595     -24.098
  P      -92.919    -192.164     -25.467
  C      -93.233    -190.329     -27.271
  O      -93.340    -191.708     -26.948
  O      -93.979    -191.416     -24.529
  O      -92.919    -193.635     -25.222
  H      -94.291    -192.022     -23.828
  H      -93.545    -190.174     -28.283
  H      -92.216    -190.014     -27.159
  H      -93.857    -189.759     -26.614

 6  7  8  9  10  11  12  13  14  15  26  29  33  34 0
 6-311+G(2d,p)
 ****
 36  38  39  40  41 0
 6-311+G(2d,p)
 ****
 1  2  3  4  5  16  17  18  19  20  21  22  23  24  25 0
 3-21G
 ****
 27  28  30  31  32  35  37  42  43  44  45  46  47 0
 3-21G
 ****
 48  49 0
 3-21G
 ****


