%nproc=1
%NoSave
%Mem=1900MB
#P OB98/GEN NMR

erre ene a

0 1
  C        1.544      44.204      40.746
  O        1.843      43.297      41.789
  H        1.208      45.146      41.187
  H        0.746      43.810      40.112
  H        2.435      44.399      40.142
  P        2.357      41.832      41.395
  C        2.389      41.042      43.852
  O        1.836      40.857      42.556
  C        1.389      40.601      44.915
  O        0.266      41.502      44.953
  C        0.816      39.203      44.684
  O        1.725      38.214      45.140
  C       -0.450      39.284      45.520
  O       -0.120      39.152      46.916
  C       -0.928      40.715      45.219
  N       -5.747      40.552      43.657
  C       -5.212      40.322      44.909
  N       -6.085      39.955      45.872
  N       -3.938      40.423      45.186
  C       -3.180      40.729      44.109
  C       -3.592      40.963      42.817
  C       -5.010      40.903      42.534
  O       -5.527      41.117      41.442
  N       -2.526      41.180      41.981
  C       -1.476      41.116      42.775
  N       -1.818      40.829      44.075
  O        3.822      41.698      41.106
  O        1.455      41.427      40.139
  H        0.210      38.243      47.039
  H        1.891      41.666      39.301
  H       -6.735      40.440      43.502
  H       -0.450      41.271      42.462
  H       -1.440      41.171      46.073
  H       -1.173      38.505      45.281
  H       -7.003      39.591      45.651
  H        0.533      39.048      43.638
  H       -5.707      39.734      46.784
  H        1.886      40.664      45.891
  H        2.622      42.106      43.963
  H        3.314      40.467      43.957
  P        2.167      36.996      44.190
  C        3.464      36.012      46.196
  O        2.486      35.786      45.192
  O        3.262      37.316      43.231
  O        0.814      36.520      43.492
  H        0.613      37.001      42.652
  H        3.577      35.129      46.789
  H        3.153      36.824      46.820
  H        4.399      36.254      45.735

 6  7  8  9  10  11  12  13  14  15  26  29  33  34 0
 6-311+G(2d,p)
 ****
 36  38  39  40  41 0
 6-311+G(2d,p)
 ****
 1  2  3  4  5  16  17  18  19  20  21  22  23  24  25 0
 3-21G
 ****
 27  28  30  31  32  35  37  42  43  44  45  46  47 0
 3-21G
 ****
 48  49 0
 3-21G
 ****


