%nproc=1
%NoSave
%Mem=1900MB
#P OB98/GEN NMR

erre ene a

0 1
  C       62.182      22.212     -50.738
  O       63.388      21.667     -50.204
  P       64.137      22.470     -49.036
  C       63.204      21.201     -46.992
  O       63.222      22.425     -47.718
  C       63.824      21.393     -45.596
  O       63.008      22.329     -44.843
  C       63.895      20.123     -44.740
  O       65.053      19.297     -44.850
  C       63.911      20.711     -43.332
  O       65.254      21.101     -42.983
  C       63.031      21.952     -43.449
  N       60.182      19.718     -39.833
  C       61.517      19.759     -40.035
  N       62.196      20.377     -41.024
  C       61.356      21.011     -41.854
  C       59.973      21.061     -41.775
  C       59.377      20.371     -40.707
  N       58.018      20.319     -40.507
  N       59.451      21.803     -42.813
  C       60.501      22.181     -43.517
  N       61.675      21.740     -42.972
  O       64.669      23.815     -49.404
  O       65.335      21.474     -48.648
  H       65.483      21.852     -43.562
  H       66.129      22.002     -48.440
  H       62.121      19.224     -39.306
  H       60.456      22.768     -44.423
  H       63.436      22.804     -42.890
  H       63.588      19.992     -42.575
  H       62.995      19.511     -44.876
  H       64.827      21.826     -45.705
  H       63.764      20.442     -47.542
  H       57.670      19.765     -39.741
  H       57.400      20.751     -41.179
  H       62.169      20.861     -46.945
  P       64.936      17.703     -44.953
  C       64.999      17.492     -47.559
  O       64.246      17.413     -46.370
  O       64.273      17.042     -43.795
  O       66.453      17.259     -45.193
  H       66.817      17.522     -46.055
  H       64.417      17.055     -48.375
  H       65.939      16.941     -47.463
  H       65.208      18.539     -47.797
  H       61.806      21.565     -51.503
  H       62.380      23.178     -51.154
  H       61.455      22.302     -49.958

 3  4  5  6  7  8  9  10  11  12  22  25  29  30  31  32 0
 6-311+G(2d,p)
 ****
 33  36  37 0
 6-311+G(2d,p)
 ****
 1  2  13  14  15  16  17  18  19  20  21  23  24  26 0
 3-21G
 ****
 27  28  34  35  38  39  40  41  42  43  44  45  46  47  48 0
 3-21G
 ****


