%nproc=1
%NoSave
%Mem=1900MB
#P OB98/GEN NMR

erre ene a

0 1
  C     -331.290     174.101     178.120
  O     -330.782     172.920     177.489
  P     -331.580     171.526     177.521
  C     -331.657     171.135     174.979
  O     -331.209     170.627     176.236
  C     -331.282     170.232     173.798
  O     -329.851     170.294     173.533
  C     -331.631     168.744     173.977
  O     -331.919     168.250     172.669
  C     -330.323     168.171     174.489
  O     -330.232     166.755     174.347
  C     -329.321     168.957     173.659
  N     -325.178     166.163     174.806
  C     -326.253     165.895     174.040
  N     -327.300     166.701     173.749
  C     -327.141     167.916     174.305
  C     -326.083     168.342     175.099
  C     -325.074     167.398     175.357
  N     -323.994     167.649     176.177
  N     -326.283     169.645     175.519
  C     -327.436     169.997     174.991
  N     -327.995     168.986     174.241
  O     -333.052     171.673     177.758
  O     -330.915     170.716     178.739
  H     -330.454     166.532     173.421
  H     -331.621     170.326     179.288
  H     -326.288     164.898     173.607
  H     -327.933     170.955     175.130
  H     -329.233     168.538     172.644
  H     -330.225     168.398     175.565
  H     -332.475     168.576     174.656
  H     -331.779     170.639     172.906
  H     -331.225     172.131     174.833
  H     -323.361     166.876     176.371
  H     -323.960     168.515     176.699
  H     -332.751     171.256     175.018
  P     -333.268     167.429     172.351
  C     -333.948     168.960     170.406
  O     -333.578     167.642     170.791
  O     -334.416     167.730     173.265
  O     -332.836     165.891     172.432
  H     -333.626     165.337     172.558
  H     -334.980     169.152     170.700
  H     -333.853     169.048     169.323
  H     -333.290     169.704     170.876
  H     -330.601     174.907     177.975
  H     -331.413     173.921     179.168
  H     -332.235     174.357     177.689

 3  4  5  6  7  8  9  10  11  12  22  25  29  30  31  32 0
 6-311+G(2d,p)
 ****
 33  36  37 0
 6-311+G(2d,p)
 ****
 1  2  13  14  15  16  17  18  19  20  21  23  24  26 0
 3-21G
 ****
 27  28  34  35  38  39  40  41  42  43  44  45  46  47  48 0
 3-21G
 ****


