%nproc=1
%NoSave
%Mem=1900MB
#P OB98/GEN NMR

erre ene a

0 1
  C     -133.544     379.074     -62.354
  O     -134.229     380.253     -62.723
  H     -132.469     379.276     -62.358
  H     -133.752     378.272     -63.068
  H     -133.843     378.767     -61.348
  P     -135.822     380.150     -62.885
  C     -135.805     382.499     -63.997
  O     -136.237     381.145     -64.068
  C     -135.609     383.048     -65.405
  O     -134.421     382.462     -65.999
  C     -136.742     382.716     -66.367
  O     -137.866     383.559     -66.195
  C     -136.060     382.927     -67.708
  O     -136.080     384.306     -68.102
  C     -134.618     382.454     -67.428
  N     -134.357     381.138     -68.007
  C     -133.250     381.065     -68.848
  O     -132.522     382.025     -69.107
  N     -133.025     379.844     -69.434
  C     -133.810     378.737     -69.297
  O     -133.582     377.687     -69.892
  C     -134.976     378.880     -68.408
  C     -135.197     380.056     -67.819
  O     -136.369     380.870     -61.567
  O     -136.347     378.758     -63.021
  H     -136.715     380.203     -60.944
  H     -135.878     384.819     -67.293
  H     -132.228     379.770     -70.044
  H     -135.621     378.020     -68.280
  H     -136.054     380.193     -67.168
  H     -133.894     383.163     -67.848
  H     -136.552     382.357     -68.493
  H     -137.022     381.658     -66.271
  H     -135.462     384.134     -65.342
  H     -134.851     382.553     -63.457
  H     -136.553     383.081     -63.448
  P     -139.217     382.901     -65.623
  C     -140.602     384.824     -66.770
  O     -140.396     383.436     -66.567
  O     -139.385     383.718     -64.257
  O     -139.124     381.419     -65.473
  H     -138.975     384.598     -64.308
  H     -141.433     384.969     -67.428
  H     -139.724     385.255     -67.204
  H     -140.805     385.296     -65.831

 6  7  8  9  10  11  12  13  14  15  16  27  31  32  33  34  35 0
 6-311+G(2d,p)
 ****
 36  37 0
 6-311+G(2d,p)
 ****
 1  2  3  4  5  17  18  19  20  21  22  23  24  25 0
 3-21G
 ****
 26  28  29  30  38  39  40  41  42  43  44  45 0
 3-21G
 ****


