%nproc=1
%NoSave
%Mem=1900MB
#P OB98/GEN NMR

erre ene a

0 1
  C      116.689     -44.951     -57.171
  O      118.012     -44.630     -56.803
  P      118.577     -45.034     -55.358
  C      120.863     -45.736     -54.404
  O      120.162     -45.228     -55.535
  C      122.355     -45.452     -54.541
  O      122.869     -45.950     -55.804
  C      122.708     -43.972     -54.552
  O      122.480     -43.241     -53.367
  C      124.132     -44.009     -55.080
  O      125.063     -44.327     -54.046
  C      124.050     -45.166     -56.108
  N      124.033     -44.673     -57.484
  C      125.177     -44.004     -57.903
  O      126.161     -43.821     -57.188
  N      125.148     -43.515     -59.181
  C      124.093     -43.588     -60.044
  O      124.119     -43.087     -61.161
  C      122.906     -44.291     -59.538
  C      122.927     -44.795     -58.301
  O      117.882     -46.178     -54.701
  O      118.494     -43.663     -54.535
  H      124.897     -45.251     -53.775
  H      119.014     -42.930     -54.911
  H      125.962     -43.015     -59.502
  H      122.056     -44.378     -60.202
  H      122.062     -45.317     -57.905
  H      124.909     -45.838     -55.996
  H      124.436     -43.045     -55.502
  H      122.095     -43.482     -55.321
  H      122.881     -45.987     -53.746
  H      120.710     -46.818     -54.349
  H      120.453     -45.292     -53.491
  P      122.656     -41.652     -53.263
  C      121.653     -39.760     -51.804
  O      121.530     -41.084     -52.274
  O      122.881     -40.917     -54.543
  O      123.978     -41.536     -52.357
  H      124.465     -40.729     -52.609
  H      120.831     -39.557     -51.111
  H      121.590     -39.052     -52.635
  H      122.598     -39.627     -51.270
  H      116.500     -44.601     -58.165
  H      116.007     -44.483     -56.493
  H      116.556     -46.012     -57.135

 3  4  5  6  7  8  9  10  11  12  13  23  28  29  30  31  32 0
 6-311+G(2d,p)
 ****
 33  34 0
 6-311+G(2d,p)
 ****
 1  2  14  15  16  17  18  19  20  21  22  24  25  26  27 0
 3-21G
 ****
 35  36  37  38  39  40  41  42  43  44  45 0
 3-21G
 ****


