%nproc=1
%NoSave
%Mem=1900MB
#P OB98/GEN NMR

erre ene a

0 1
  C      203.207      -2.247     246.513
  O      203.772      -3.281     247.330
  P      204.181      -2.963     248.850
  C      206.712      -2.537     248.353
  O      205.481      -2.022     248.848
  C      207.795      -1.444     248.394
  O      207.840      -0.842     249.716
  C      209.208      -1.951     248.149
  O      209.463      -2.183     246.764
  C      210.048      -0.803     248.707
  O      210.178       0.260     247.752
  C      209.190      -0.352     249.917
  N      209.734      -0.796     251.199
  C      209.616       0.102     252.255
  O      209.146       1.231     252.144
  N      210.100      -0.341     253.467
  C      210.738      -1.533     253.692
  O      211.163      -1.864     254.796
  C      210.905      -2.393     252.518
  C      210.409      -1.997     251.338
  O      204.777      -4.364     249.346
  O      203.060      -2.518     249.745
  H      210.702       0.960     248.190
  H      204.654      -4.445     250.304
  H      210.010       0.284     254.260
  H      211.423      -3.338     252.648
  H      210.530      -2.625     250.460
  H      209.102       0.744     249.931
  H      211.055      -1.120     248.987
  H      209.394      -2.856     248.752
  H      207.530      -0.658     247.675
  H      206.586      -2.859     247.311
  H      207.017      -3.402     248.963
  P      209.157      -3.691     246.238
  C      211.582      -4.318     246.974
  O      210.201      -4.618     247.017
  O      209.724      -3.582     244.736
  O      207.724      -4.078     246.356
  H      210.482      -2.996     244.667
  H      211.767      -3.240     246.929
  H      212.039      -4.816     246.097
  H      212.061      -4.722     247.892
  H      202.998      -2.637     245.539
  H      203.901      -1.437     246.432
  H      202.300      -1.896     246.959

 3  4  5  6  7  8  9  10  11  12  13  23  28  29  30  31  32 0
 6-311+G(2d,p)
 ****
 33  34 0
 6-311+G(2d,p)
 ****
 1  2  14  15  16  17  18  19  20  21  22  24  25  26 0
 3-21G
 ****
 27  35  36  37  38  39  40  41  42  43  44  45 0
 3-21G
 ****


