%nproc=1
%NoSave
%Mem=1900MB
#P OB98/GEN NMR

erre ene a

0 1
  C      256.935    -159.541     453.585
  O      255.570    -159.532     453.957
  P      254.441    -159.070     452.915
  C      253.223    -161.345     452.995
  O      253.950    -160.418     452.190
  C      253.684    -162.778     452.729
  O      255.048    -162.962     453.165
  C      252.869    -163.841     453.452
  O      251.634    -164.048     452.795
  C      253.825    -165.029     453.399
  O      253.736    -165.713     452.138
  C      255.201    -164.346     453.555
  N      255.733    -164.470     454.908
  C      256.772    -165.391     455.066
  O      257.170    -166.064     454.113
  N      257.316    -165.572     456.321
  C      256.829    -164.900     457.327
  N      257.398    -165.130     458.548
  C      255.715    -163.940     457.204
  C      255.218    -163.780     455.983
  O      254.836    -157.957     451.999
  O      253.206    -158.710     453.870
  H      253.973    -165.054     451.453
  H      253.350    -157.845     454.334
  H      255.344    -163.421     458.072
  H      254.395    -163.099     455.802
  H      255.926    -164.781     452.860
  H      253.603    -165.765     454.181
  H      252.712    -163.543     454.492
  H      253.653    -162.942     451.636
  H      258.143    -165.811     458.596
  H      252.159    -161.254     452.752
  H      257.081    -164.687     459.396
  H      253.361    -161.082     454.057
  P      250.305    -163.352     453.362
  C      249.680    -162.476     451.031
  O      249.931    -162.139     452.384
  O      250.327    -163.011     454.818
  O      249.155    -164.430     453.049
  H      248.580    -164.514     453.832
  H      249.131    -161.654     450.565
  H      249.091    -163.390     450.953
  H      250.641    -162.605     450.507
  H      257.527    -159.877     454.410
  H      257.236    -158.552     453.309
  H      257.074    -160.201     452.754

 3  4  5  6  7  8  9  10  11  12  13  23  27  28  29  30  32 0
 6-311+G(2d,p)
 ****
 34  35 0
 6-311+G(2d,p)
 ****
 1  2  14  15  16  17  18  19  20  21  22  24  25  26 0
 3-21G
 ****
 31  33  36  37  38  39  40  41  42  43  44  45  46 0
 3-21G
 ****


