%nproc=1
%NoSave
%Mem=1900MB
#P OB98/GEN NMR

erre ene a

0 1
  C     -196.895      52.977      18.730
  O     -195.743      53.240      17.928
  P     -195.936      53.797      16.439
  C     -194.045      55.550      16.363
  O     -194.517      54.300      15.883
  C     -192.571      55.769      15.982
  O     -191.732      54.843      16.722
  C     -192.303      55.559      14.485
  O     -191.596      56.642      13.885
  C     -191.613      54.206      14.436
  O     -190.816      54.033      13.273
  C     -190.889      54.146      15.786
  N     -190.619      52.767      16.202
  C     -189.509      52.150      15.639
  O     -188.809      52.680      14.777
  N     -189.252      50.872      16.058
  C     -190.032      50.138      16.903
  O     -189.785      48.979      17.211
  C     -191.230      50.819      17.416
  C     -191.463      52.079      17.047
  O     -197.065      54.754      16.243
  O     -196.179      52.457      15.585
  H     -190.138      54.744      13.254
  H     -196.855      52.652      14.908
  H     -188.439      50.419      15.672
  H     -191.885      50.262      18.072
  H     -192.347      52.601      17.400
  H     -189.925      54.663      15.737
  H     -192.385      53.426      14.415
  H     -193.238      55.508      13.915
  H     -192.307      56.788      16.278
  H     -194.136      55.580      17.451
  H     -194.686      56.351      15.980
  P     -192.100      57.459      12.606
  C     -191.918      59.812      13.678
  O     -191.471      58.930      12.668
  O     -193.567      57.414      12.343
  O     -191.303      56.768      11.399
  H     -191.893      56.686      10.629
  H     -191.694      60.837      13.372
  H     -191.383      59.598      14.610
  H     -192.994      59.719      13.842
  H     -196.587      52.613      19.688
  H     -197.505      52.241      18.248
  H     -197.456      53.879      18.855

 3  4  5  6  7  8  9  10  11  12  13  23  28  29  30  31  32 0
 6-311+G(2d,p)
 ****
 33  34 0
 6-311+G(2d,p)
 ****
 1  2  14  15  16  17  18  19  20  21  22  24  25  26  27 0
 3-21G
 ****
 35  36  37  38  39  40  41  42  43  44  45 0
 3-21G
 ****


