%nproc=1
%NoSave
%Mem=1900MB
#P OB98/GEN NMR

erre ene a

0 1
  C     -419.302    -557.146     899.213
  O     -420.643    -556.912     899.579
  H     -418.688    -557.156     900.119
  H     -418.938    -556.351     898.558
  H     -419.202    -558.116     898.716
  P     -421.751    -556.847     898.418
  C     -422.638    -559.227     898.945
  O     -422.916    -557.833     898.934
  C     -423.067    -559.837     900.273
  O     -422.265    -559.337     901.373
  C     -424.501    -559.534     900.691
  O     -425.476    -560.246     899.950
  C     -424.454    -559.960     902.145
  O     -424.483    -561.398     902.230
  C     -423.080    -559.396     902.570
  N     -423.178    -558.078     903.199
  C     -422.893    -558.013     904.566
  O     -422.591    -559.023     905.198
  N     -423.000    -556.795     905.208
  C     -423.379    -555.749     904.542
  N     -423.468    -554.573     905.224
  C     -423.709    -555.775     903.100
  C     -423.581    -556.959     902.500
  O     -421.262    -557.100     897.029
  O     -422.440    -555.414     898.599
  H     -425.273    -561.694     901.741
  H     -423.133    -555.320     897.899
  H     -424.043    -554.887     902.597
  H     -423.815    -557.067     901.441
  H     -422.579    -560.082     903.271
  H     -425.296    -559.584     902.732
  H     -424.698    -558.453     900.651
  H     -422.887    -560.916     900.218
  H     -423.240    -554.584     906.210
  H     -421.564    -559.362     898.780
  H     -423.831    -553.726     904.803
  H     -423.191    -559.723     898.143
  P     -426.934    -559.578     899.821
  C     -426.649    -558.299     897.556
  O     -427.212    -559.399     898.253
  O     -426.692    -558.081     900.347
  O     -428.020    -560.279     900.569
  H     -426.969    -557.992     901.276
  H     -426.940    -558.342     896.527
  H     -425.582    -558.340     897.627
  H     -427.001    -557.385     897.988

 6  7  8  9  10  11  12  13  14  15  16  26  30  31  32  33  35 0
 6-311+G(2d,p)
 ****
 37  38 0
 6-311+G(2d,p)
 ****
 1  2  3  4  5  17  18  19  20  21  22  23  24  25 0
 3-21G
 ****
 27  28  29  34  36  39  40  41  42  43  44  45  46 0
 3-21G
 ****


