%nproc=1
%NoSave
%Mem=1900MB
#P OB98/GEN NMR

erre ene a

0 1
  C       29.272     299.122    -329.082
  O       29.332     297.773    -328.659
  H       28.250     299.378    -329.379
  H       29.568     299.765    -328.250
  H       29.958     299.287    -329.919
  P       28.959     296.661    -329.753
  C       26.520     296.491    -328.882
  O       27.743     295.815    -329.135
  C       25.664     295.680    -327.911
  O       25.077     294.555    -328.591
  C       26.426     295.094    -326.726
  O       26.644     296.061    -325.712
  C       25.455     294.015    -326.273
  O       24.395     294.611    -325.502
  C       24.910     293.493    -327.609
  N       25.495     288.453    -326.944
  C       24.676     289.352    -326.353
  N       24.565     290.671    -326.600
  C       25.395     291.047    -327.585
  C       26.272     290.244    -328.296
  C       26.309     288.883    -327.940
  N       27.202     287.986    -328.508
  N       26.976     290.988    -329.223
  C       26.548     292.219    -329.058
  N       25.587     292.303    -328.086
  O       30.206     295.655    -329.677
  O       28.749     297.176    -331.137
  H       24.788     294.889    -324.652
  H       30.839     295.874    -330.386
  H       24.031     288.957    -325.574
  H       26.901     293.076    -329.612
  H       23.836     293.267    -327.559
  H       25.924     293.254    -325.644
  H       27.363     294.619    -327.042
  H       24.844     296.327    -327.567
  H       25.976     296.620    -329.822
  H       27.460     287.223    -327.886
  H       27.948     288.416    -329.040
  H       26.745     297.474    -328.460
  P       28.117     296.686    -325.578
  C       28.186     296.267    -323.027
  O       28.249     297.226    -324.074
  O       28.014     298.018    -326.454
  O       29.226     295.807    -326.055
  H       28.705     298.017    -327.146
  H       28.287     296.762    -322.084
  H       28.979     295.558    -323.145
  H       27.245     295.759    -323.065

 6  7  8  9  10  11  12  13  14  15  25  28  32  33  34  35 0
 6-311+G(2d,p)
 ****
 36  39  40 0
 6-311+G(2d,p)
 ****
 1  2  3  4  5  16  17  18  19  20  21  22  23  24 0
 3-21G
 ****
 26  27  29  30  31  37  38  41  42  43  44  45  46  47  48 0
 3-21G
 ****


