%nproc=1
%NoSave
%Mem=1900MB
#P OB98/GEN NMR

erre ene a

0 1
  C      318.739    -828.137     297.649
  O      318.386    -829.428     298.160
  P      317.676    -830.440     297.130
  C      315.217    -829.808     297.671
  O      316.256    -829.819     296.706
  C      313.991    -829.025     297.197
  O      313.270    -829.785     296.179
  C      312.987    -828.708     298.313
  O      312.392    -827.444     298.005
  C      311.941    -829.790     298.157
  O      310.703    -829.410     298.767
  C      311.902    -829.937     296.628
  N      311.322    -831.210     296.175
  C      309.974    -831.200     295.821
  O      309.295    -830.168     295.959
  N      309.403    -832.355     295.362
  C      310.100    -833.442     295.314
  N      309.480    -834.564     294.856
  C      311.517    -833.515     295.741
  C      312.058    -832.364     296.154
  O      317.286    -831.688     298.059
  O      318.555    -830.854     296.000
  H      310.826    -829.408     299.745
  H      317.584    -832.515     297.638
  H      312.064    -834.451     295.700
  H      313.092    -832.317     296.483
  H      311.307    -829.126     296.180
  H      312.289    -830.722     298.626
  H      313.439    -828.668     299.302
  H      314.336    -828.105     296.724
  H      308.510    -834.473     294.571
  H      315.582    -829.355     298.603
  H      309.926    -835.461     294.778
  H      314.957    -830.838     297.929
  P      312.784    -826.178     298.903
  C      310.937    -826.448     300.677
  O      312.320    -826.578     300.389
  O      311.640    -825.125     298.493
  O      314.145    -825.588     298.762
  H      311.811    -824.275     298.931
  H      310.745    -826.873     301.668
  H      310.341    -826.989     299.947
  H      310.655    -825.390     300.689
  H      319.200    -827.561     298.424
  H      317.858    -827.635     297.308
  H      319.423    -828.251     296.834

 3  4  5  6  7  8  9  10  11  12  13  21  23  27  28  29  30  32 0
 6-311+G(2d,p)
 ****
 34  35 0
 6-311+G(2d,p)
 ****
 1  2  14  15  16  17  18  19  20  22  24  25  26 0
 3-21G
 ****
 31  33  36  37  38  39  40  41  42  43  44  45  46 0
 3-21G
 ****


