%nproc=1
%NoSave
%Mem=1900MB
#P OB98/GEN NMR

erre ene a

0 1
  C      558.998     -20.753     -86.378
  O      558.148     -19.738     -86.911
  P      558.703     -18.249     -87.152
  C      558.224     -18.208     -89.665
  O      557.939     -17.601     -88.409
  C      557.367     -19.453     -89.949
  O      555.965     -19.187     -89.701
  C      557.476     -19.996     -91.375
  O      557.334     -21.417     -91.265
  C      556.262     -19.383     -92.050
  O      555.898     -20.058     -93.243
  C      555.235     -19.448     -90.909
  N      554.138     -18.499     -91.100
  C      552.845     -19.016     -91.083
  O      552.663     -20.231     -90.974
  N      551.783     -18.159     -91.238
  C      552.007     -16.903     -91.485
  N      550.916     -16.104     -91.658
  C      553.361     -16.327     -91.601
  C      554.367     -17.176     -91.386
  O      560.190     -18.140     -87.207
  O      558.126     -17.420     -85.906
  H      556.718     -20.281     -93.737
  H      558.742     -16.695     -85.687
  H      553.500     -15.281     -91.838
  H      555.401     -16.852     -91.441
  H      554.811     -20.454     -90.834
  H      556.474     -18.340     -92.311
  H      558.412     -19.738     -91.872
  H      557.675     -20.228     -89.230
  H      550.005     -16.543     -91.600
  H      559.281     -18.491     -89.682
  H      550.980     -15.149     -91.965
  H      558.072     -17.467     -90.459
  P      558.491     -22.427     -91.722
  C      557.948     -23.799     -89.637
  O      558.173     -23.837     -91.033
  O      559.879     -21.926     -91.508
  O      558.203     -22.701     -93.277
  H      559.006     -23.075     -93.688
  H      557.543     -24.768     -89.319
  H      557.246     -23.013     -89.373
  H      558.895     -23.628     -89.115
  H      558.450     -21.668     -86.292
  H      559.348     -20.454     -85.412
  H      559.834     -20.898     -87.031

 3  4  5  6  7  8  9  10  11  12  13  23  27  28  29  30  32 0
 6-311+G(2d,p)
 ****
 34  35 0
 6-311+G(2d,p)
 ****
 1  2  14  15  16  17  18  19  20  21  22  24  25  26 0
 3-21G
 ****
 31  33  36  37  38  39  40  41  42  43  44  45  46 0
 3-21G
 ****


