%nproc=1
%NoSave
%Mem=1900MB
#P OB98/GEN NMR

erre ene a

0 1
  C     -457.426     -14.740     721.517
  O     -458.024     -13.458     721.476
  H     -458.086     -15.415     722.071
  H     -456.461     -14.693     722.026
  H     -457.300     -15.126     720.502
  P     -457.193     -12.303     720.733
  C     -458.475     -12.850     718.552
  O     -457.209     -12.733     719.186
  C     -458.586     -11.863     717.393
  O     -458.878     -10.542     717.887
  C     -457.319     -11.734     716.554
  O     -457.258     -12.772     715.586
  C     -457.542     -10.377     715.899
  O     -458.421     -10.526     714.768
  C     -458.245      -9.576     717.007
  N     -454.586      -5.977     716.904
  C     -455.109      -6.750     715.928
  N     -456.040      -7.726     716.037
  C     -456.444      -7.860     717.309
  C     -455.998      -7.142     718.411
  C     -455.027      -6.153     718.168
  N     -454.496      -5.365     719.166
  N     -456.635      -7.559     719.560
  C     -457.492      -8.472     719.152
  N     -457.391      -8.715     717.803
  O     -455.855     -11.991     721.315
  O     -458.248     -11.099     720.768
  H     -458.514      -9.642     714.366
  H     -459.146     -11.427     720.585
  H     -454.728      -6.568     714.928
  H     -458.223      -8.969     719.781
  H     -459.041      -8.937     716.605
  H     -456.617      -9.931     715.529
  H     -456.422     -11.688     717.180
  H     -459.438     -12.170     716.769
  H     -459.279     -12.661     719.274
  H     -453.675      -4.828     718.941
  H     -454.728      -5.593     720.124
  H     -458.571     -13.876     718.189
  P     -455.852     -13.285     715.016
  C     -455.525     -14.569     717.222
  O     -454.970     -13.617     716.317
  O     -455.215     -12.380     714.020
  O     -456.172     -14.734     714.419
  H     -455.456     -15.020     713.823
  H     -454.856     -14.711     718.045
  H     -455.670     -15.500     716.716
  H     -456.466     -14.210     717.584

 6  7  8  9  10  11  12  13  14  15  25  28  32  33  34  35 0
 6-311+G(2d,p)
 ****
 36  39  40 0
 6-311+G(2d,p)
 ****
 1  2  3  4  5  16  17  18  19  20  21  22  23  24 0
 3-21G
 ****
 26  27  29  30  31  37  38  41  42  43  44  45  46  47 0
 3-21G
 ****
 48 0
 3-21G
 ****


