%nproc=1
%NoSave
%Mem=1900MB
#P OB98/GEN NMR

erre ene a

0 1
  C       96.362    -205.404    -230.123
  O       95.466    -206.448    -229.729
  P       95.313    -206.735    -228.157
  C       96.783    -208.878    -228.433
  O       95.573    -208.308    -227.968
  C       96.512    -210.151    -229.242
  O       96.306    -211.276    -228.334
  C       95.290    -210.068    -230.165
  O       95.618    -210.795    -231.357
  C       94.217    -210.800    -229.380
  O       93.173    -211.274    -230.218
  C       95.056    -211.892    -228.708
  N       94.385    -212.489    -227.555
  C       93.721    -213.691    -227.765
  O       93.615    -214.210    -228.875
  N       93.142    -214.256    -226.662
  C       93.095    -213.706    -225.412
  O       92.559    -214.254    -224.458
  C       93.717    -212.380    -225.277
  C       94.321    -211.842    -226.339
  O       93.738    -206.565    -227.957
  O       96.160    -205.839    -227.316
  H       93.213    -206.896    -228.706
  H       93.546    -211.905    -230.867
  H       92.681    -215.144    -226.785
  H       93.648    -211.886    -224.316
  H       94.769    -210.858    -226.278
  H       95.288    -212.690    -229.424
  H       93.782    -210.131    -228.629
  H       95.019    -209.039    -230.421
  H       97.408    -210.374    -229.833
  H       97.426    -209.130    -227.583
  H       97.324    -208.136    -229.032
  P       96.237    -209.980    -232.600
  C       94.999    -211.247    -234.527
  O       96.210    -210.961    -233.866
  O       97.787    -209.971    -232.185
  O       95.684    -208.608    -232.795
  H       98.111    -210.845    -231.904
  H       95.225    -211.728    -235.482
  H       94.431    -210.335    -234.725
  H       94.399    -211.932    -233.922
  H       96.367    -205.322    -231.190
  H       97.349    -205.632    -229.779
  H       96.040    -204.478    -229.695

 3  4  5  6  7  8  9  10  11  12  13  24  28  29  30  31  32 0
 6-311+G(2d,p)
 ****
 33  34 0
 6-311+G(2d,p)
 ****
 1  2  14  15  16  17  18  19  20  21  22  23  25  26  27 0
 3-21G
 ****
 35  36  37  38  39  40  41  42  43  44  45 0
 3-21G
 ****


