%nproc=1
%NoSave
%Mem=1900MB
#P OB98/GEN NMR

erre ene a

0 1
  C     -921.546    1092.860     714.400
  O     -922.279    1092.757     713.191
  P     -922.356    1094.077     712.272
  C     -924.926    1094.051     711.914
  O     -923.647    1093.918     711.339
  C     -925.985    1094.228     710.846
  O     -925.866    1095.528     710.247
  C     -925.897    1093.233     709.689
  O     -926.372    1091.956     710.060
  C     -926.728    1093.945     708.633
  O     -928.123    1093.745     708.886
  C     -926.339    1095.439     708.874
  N     -925.361    1097.958     704.523
  C     -926.516    1097.641     705.139
  N     -926.709    1096.938     706.297
  C     -925.535    1096.592     706.805
  C     -924.255    1096.830     706.287
  C     -924.197    1097.535     705.097
  N     -923.018    1097.887     704.483
  N     -923.298    1096.277     707.123
  C     -923.953    1095.725     708.100
  N     -925.294    1095.888     707.971
  O     -921.126    1093.871     711.258
  O     -922.258    1095.386     713.012
  H     -928.617    1094.508     708.502
  H     -920.719    1094.738     711.021
  H     -927.445    1097.990     704.636
  H     -923.492    1095.196     708.939
  H     -927.201    1096.091     708.771
  H     -926.518    1093.595     707.603
  H     -924.845    1093.146     709.342
  H     -926.990    1094.153     711.317
  H     -924.951    1094.924     712.592
  H     -923.072    1098.283     703.542
  H     -922.162    1097.477     704.833
  H     -925.132    1093.169     712.546
  P     -925.820    1090.694     709.251
  C     -928.155    1089.609     709.341
  O     -926.782    1089.502     709.705
  O     -924.446    1090.369     710.016
  O     -925.707    1090.910     707.766
  H     -924.604    1090.337     710.987
  H     -928.691    1088.712     709.667
  H     -928.250    1089.703     708.244
  H     -928.599    1090.473     709.833
  H     -921.572    1091.922     714.914
  H     -921.982    1093.617     715.018
  H     -920.531    1093.119     714.181

 3  4  5  6  7  8  9  10  11  12  22  25  29  30  31  32 0
 6-311+G(2d,p)
 ****
 33  36  37 0
 6-311+G(2d,p)
 ****
 1  2  13  14  15  16  17  18  19  20  21  23  24  26 0
 3-21G
 ****
 27  28  34  35  38  39  40  41  42  43  44  45  46  47  48 0
 3-21G
 ****


