%nproc=1
%NoSave
%Mem=1900MB
#P OB98/GEN NMR

erre ene a

0 1
  C     -354.593    -470.701     225.164
  O     -354.979    -469.858     226.228
  P     -355.891    -470.342     227.442
  C     -353.880    -471.421     228.686
  O     -355.181    -471.612     228.133
  C     -353.767    -471.902     230.141
  O     -354.403    -470.941     231.009
  C     -354.529    -473.219     230.320
  O     -353.917    -474.454     229.985
  C     -355.109    -473.154     231.732
  O     -354.318    -473.865     232.691
  C     -355.107    -471.651     232.046
  N     -359.582    -471.908     234.410
  C     -358.377    -472.477     234.771
  N     -358.427    -473.381     235.775
  N     -357.237    -472.212     234.177
  C     -357.377    -471.361     233.130
  C     -358.514    -470.714     232.688
  C     -359.748    -470.993     233.374
  O     -360.856    -470.567     233.048
  N     -358.285    -469.986     231.554
  C     -357.016    -470.217     231.277
  N     -356.430    -471.075     232.175
  O     -357.369    -470.401     227.195
  O     -355.632    -469.182     228.526
  H     -354.702    -473.702     233.568
  H     -356.463    -469.048     229.024
  H     -360.437    -472.214     234.861
  H     -356.483    -469.810     230.419
  H     -354.583    -471.455     232.977
  H     -356.112    -473.614     231.752
  H     -359.294    -473.726     236.151
  H     -355.402    -473.173     229.657
  H     -357.601    -473.949     235.943
  H     -352.725    -471.958     230.467
  H     -353.645    -470.356     228.607
  H     -353.147    -471.959     228.071
  P     -354.646    -475.756     229.423
  C     -354.213    -474.743     227.114
  O     -355.124    -475.457     227.929
  O     -356.030    -475.821     230.240
  O     -353.880    -477.031     229.595
  H     -356.367    -476.732     230.233
  H     -354.746    -474.342     226.249
  H     -353.426    -475.420     226.761
  H     -353.764    -473.918     227.673
  H     -353.986    -470.151     224.475
  H     -355.465    -471.062     224.661
  H     -354.035    -471.529     225.549

 3  4  5  6  7  8  9  10  11  12  23  26  30  31 0
 6-311+G(2d,p)
 ****
 33  35  36  37  38 0
 6-311+G(2d,p)
 ****
 1  2  13  14  15  16  17  18  19  20  21  22  24  25 0
 3-21G
 ****
 27  28  29  32  34  39  40  41  42  43  44  45  46  47  48  49 0
 3-21G
 ****


