%nproc=1
%NoSave
%Mem=1900MB
#P OB98/GEN NMR

erre ene a

0 1
  C     -290.852       8.620      52.173
  O     -292.196       8.162      52.177
  P     -293.355       9.267      52.284
  C     -294.127       8.139      54.495
  O     -293.764       9.347      53.836
  C     -295.047       8.410      55.688
  O     -295.442       7.147      56.275
  C     -294.411       9.264      56.787
  O     -295.425      10.120      57.317
  C     -294.021       8.249      57.842
  O     -293.928       8.843      59.135
  C     -295.136       7.206      57.683
  N     -294.750       5.897      58.202
  C     -294.376       5.835      59.549
  O     -294.308       6.869      60.220
  N     -294.038       4.620      60.089
  C     -293.975       3.575      59.323
  N     -293.639       2.392      59.905
  C     -294.242       3.621      57.872
  C     -294.639       4.795      57.389
  O     -294.609       8.533      51.610
  O     -293.037      10.570      51.627
  H     -293.386       8.250      59.706
  H     -295.188       9.179      51.163
  H     -294.137       2.727      57.269
  H     -294.877       4.919      56.340
  H     -296.047       7.531      58.205
  H     -293.045       7.808      57.594
  H     -293.572       9.868      56.422
  H     -295.958       8.892      55.312
  H     -293.449       2.389      60.898
  H     -293.221       7.650      54.866
  H     -293.562       1.523      59.388
  H     -294.611       7.464      53.779
  P     -295.212      11.704      57.175
  C     -295.189      12.040      59.722
  O     -294.451      12.143      58.517
  O     -296.693      12.252      57.452
  O     -294.672      12.235      55.887
  H     -296.715      13.220      57.330
  H     -294.517      12.237      60.560
  H     -295.607      11.036      59.829
  H     -295.992      12.785      59.731
  H     -290.190       7.783      52.098
  H     -290.653       9.151      53.080
  H     -290.700       9.271      51.338

 3  4  5  6  7  8  9  10  11  12  13  21  23  27  28  29  30  32 0
 6-311+G(2d,p)
 ****
 34  35 0
 6-311+G(2d,p)
 ****
 1  2  14  15  16  17  18  19  20  22  24  25  26 0
 3-21G
 ****
 31  33  36  37  38  39  40  41  42  43  44  45  46 0
 3-21G
 ****


