%nproc=1
%NoSave
%Mem=1900MB
#P OB98/GEN NMR

erre ene a

0 1
  C      -14.524     -10.525      -6.795
  O      -13.808     -10.149      -7.950
  P      -12.795     -11.159      -8.667
  C      -10.830     -10.631      -7.087
  O      -11.314     -10.580      -8.424
  C       -9.683      -9.631      -6.899
  O       -9.353      -9.561      -5.477
  C       -8.406     -10.034      -7.663
  O       -7.875      -9.012      -8.506
  C       -7.485     -10.507      -6.549
  O       -6.113     -10.494      -6.894
  C       -7.916      -9.606      -5.387
  N       -7.453     -10.101      -4.093
  C       -6.816      -9.191      -3.256
  O       -6.630      -8.009      -3.529
  N       -6.326      -9.696      -2.084
  C       -6.305     -11.010      -1.726
  O       -5.761     -11.406      -0.704
  C       -6.958     -11.932      -2.668
  C       -7.514     -11.444      -3.780
  O      -13.105     -11.472     -10.092
  O      -12.813     -12.437      -7.701
  H       -5.759      -9.611      -6.682
  H      -12.533     -12.261      -6.786
  H       -5.862      -9.047      -1.468
  H       -6.948     -12.982      -2.415
  H       -8.002     -12.099      -4.493
  H       -7.550      -8.586      -5.516
  H       -7.746     -11.547      -6.319
  H       -8.604     -10.866      -8.348
  H      -10.041      -8.649      -7.220
  H      -10.462     -11.639      -6.884
  H      -11.648     -10.432      -6.387
  P       -7.883      -9.045     -10.106
  C       -5.561     -10.164     -10.441
  O       -6.367      -9.017     -10.614
  O       -8.786      -8.052     -10.757
  O       -8.351     -10.539     -10.446
  H       -8.820     -10.547     -11.301
  H       -4.518      -9.849     -10.351
  H       -5.656     -10.807     -11.320
  H       -5.842     -10.723      -9.545
  H      -15.141      -9.711      -6.477
  H      -13.836     -10.777      -6.015
  H      -15.138     -11.373      -7.016

 3  4  5  6  7  8  9  10  11  12  13  23  28  29  30  31  32 0
 6-311+G(2d,p)
 ****
 33  34 0
 6-311+G(2d,p)
 ****
 1  2  14  15  16  17  18  19  20  21  22  24  25  26  27 0
 3-21G
 ****
 35  36  37  38  39  40  41  42  43  44  45 0
 3-21G
 ****


