%nproc=1
%NoSave
%Mem=1900MB
#P OB98/GEN NMR

erre ene a

0 1
  C     -580.073    -193.564       3.601
  O     -580.635    -193.557       2.296
  P     -580.664    -194.956       1.496
  C     -579.182    -195.061      -0.627
  O     -579.234    -195.086       0.796
  C     -579.033    -193.631      -1.134
  O     -578.000    -192.955      -0.384
  C     -578.609    -193.515      -2.589
  O     -579.717    -193.674      -3.478
  C     -578.073    -192.095      -2.630
  O     -579.169    -191.166      -2.775
  C     -577.423    -191.948      -1.247
  N     -572.997    -190.152       0.464
  C     -574.291    -189.721       0.711
  N     -574.422    -188.670       1.554
  N     -575.352    -190.259       0.175
  C     -575.076    -191.324      -0.619
  C     -573.840    -191.846      -0.946
  C     -572.667    -191.208      -0.390
  O     -571.501    -191.506      -0.623
  N     -573.961    -192.934      -1.771
  C     -575.264    -193.091      -1.914
  N     -575.983    -192.120      -1.260
  O     -581.652    -194.648       0.276
  O     -581.118    -196.132       2.301
  H     -578.838    -190.292      -2.513
  H     -582.061    -195.486      -0.035
  H     -572.222    -189.712       0.909
  H     -575.730    -193.896      -2.476
  H     -577.652    -190.974      -0.802
  H     -577.397    -191.917      -3.480
  H     -573.650    -188.305       2.097
  H     -577.801    -194.217      -2.826
  H     -575.356    -188.364       1.777
  H     -579.980    -193.099      -0.960
  H     -580.112    -195.480      -1.026
  H     -578.351    -195.681      -0.968
  P     -579.368    -194.101      -4.985
  C     -579.990    -192.116      -6.541
  O     -579.003    -192.734      -5.738
  O     -580.800    -194.507      -5.581
  O     -578.375    -195.209      -5.098
  H     -580.696    -195.141      -6.318
  H     -580.987    -192.225      -6.114
  H     -579.968    -192.552      -7.544
  H     -579.759    -191.053      -6.616
  H     -580.117    -192.578       4.014
  H     -579.053    -193.883       3.548
  H     -580.625    -194.236       4.224

 3  4  5  6  7  8  9  10  11  12  23  26  30  31  33  0
 6-311+G(2d,p)
 ****
 35  36  37  38 0
 6-311+G(2d,p)
 ****
 1  2  13  14  15  16  17  18  19  20  21  22  24  25  27  28  29 0
 3-21G
 ****
 32  34  39  40  41  42  43  44  45  46  47  48  49 0
 3-21G
 ****


