%nproc=1
%NoSave
%Mem=1900MB
#P OB98/GEN NMR

erre ene a

0 1
  C       64.276     -33.280      50.080
  O       63.834     -32.488      48.990
  P       63.079     -33.160      47.744
  C       65.406     -33.668      46.776
  O       64.118     -34.191      47.083
  C       66.287     -34.744      46.143
  O       66.470     -35.819      47.097
  C       65.687     -35.352      44.879
  O       66.744     -35.642      43.959
  C       65.085     -36.669      45.342
  O       65.017     -37.620      44.265
  C       66.033     -37.049      46.484
  N       66.105     -41.545      48.963
  C       66.928     -41.023      48.029
  N       66.835     -39.833      47.393
  C       65.788     -39.132      47.857
  C       64.863     -39.531      48.811
  C       65.050     -40.806      49.377
  N       64.217     -41.332      50.341
  N       63.905     -38.554      49.005
  C       64.260     -37.577      48.198
  N       65.395     -37.873      47.491
  O       62.465     -32.198      46.787
  O       61.987     -34.121      48.407
  H       64.742     -38.475      44.655
  H       61.160     -34.104      47.887
  H       67.775     -41.645      47.746
  H       63.727     -36.646      48.079
  H       66.921     -37.577      46.112
  H       64.065     -36.498      45.706
  H       64.946     -34.701      44.404
  H       67.274     -34.314      45.937
  H       65.870     -33.327      47.707
  H       64.498     -42.197      50.775
  H       63.539     -40.716      50.771
  H       65.301     -32.810      46.105
  P       66.330     -35.681      42.401
  C       66.829     -38.237      42.458
  O       65.925     -37.205      42.126
  O       67.385     -35.085      41.528
  O       64.947     -34.874      42.428
  H       64.520     -34.919      43.312
  H       66.392     -39.194      42.161
  H       67.002     -38.255      43.537
  H       67.777     -38.100      41.929
  H       64.753     -32.654      50.805
  H       64.972     -34.013      49.729
  H       63.437     -33.770      50.528

 3  4  5  6  7  8  9  10  11  12  22  25  29  30  31  32 0
 6-311+G(2d,p)
 ****
 33  36  37 0
 6-311+G(2d,p)
 ****
 1  2  13  14  15  16  17  18  19  20  21  23  24  26 0
 3-21G
 ****
 27  28  34  35  38  39  40  41  42  43  44  45  46  47  48 0
 3-21G
 ****


