%nproc=1
%NoSave
%Mem=1900MB
#P OB98/GEN NMR

erre ene a

0 1
  C     -121.625    -896.040    -115.515
  O     -120.512    -896.710    -114.959
  H     -122.381    -895.920    -114.733
  H     -122.051    -896.650    -116.324
  H     -121.354    -895.050    -115.895
  P     -119.109    -896.610    -115.717
  C     -117.523    -896.420    -113.680
  O     -118.092    -895.760    -114.806
  C     -117.928    -895.750    -112.366
  O     -119.360    -895.700    -112.270
  C     -117.422    -896.520    -111.141
  O     -116.107    -896.180    -110.728
  C     -118.459    -896.130    -110.087
  O     -118.068    -894.930    -109.398
  C     -119.735    -895.910    -110.897
  N     -122.402    -899.020    -107.849
  C     -121.386    -898.130    -107.502
  N     -121.025    -898.120    -106.213
  N     -120.777    -897.370    -108.379
  C     -121.184    -897.580    -109.654
  C     -122.166    -898.430    -110.099
  C     -122.886    -899.220    -109.128
  O     -123.795    -900.000    -109.366
  N     -122.286    -898.390    -111.481
  C     -121.316    -897.590    -111.847
  N     -120.680    -897.010    -110.784
  O     -119.406    -895.610    -116.935
  O     -118.555    -897.910    -116.224
  H     -118.524    -894.900    -108.537
  H     -118.846    -895.840    -117.692
  H     -122.846    -899.560    -107.114
  H     -121.052    -897.360    -112.879
  H     -120.257    -895.000    -110.562
  H     -118.540    -896.910    -109.320
  H     -121.384    -898.750    -105.511
  H     -117.508    -897.610    -111.307
  H     -120.157    -897.640    -105.954
  H     -117.558    -894.720    -112.354
  H     -116.434    -896.370    -113.814
  H     -117.806    -897.480    -113.678
  P     -115.045    -897.310    -110.353
  C     -112.953    -896.570    -111.760
  O     -114.033    -897.470    -111.566
  O     -115.919    -898.670    -110.422
  O     -114.367    -897.150    -109.027
  H     -116.197    -898.930    -109.541
  H     -112.400    -896.859    -112.629
  H     -112.311    -896.594    -110.905
  H     -113.334    -895.579    -111.892

 6  7  8  9  10  11  12  13  14  15  26  29  33  34 0
 6-311+G(2d,p)
 ****
 36  38  39  40  41 0
 6-311+G(2d,p)
 ****
 1  2  3  4  5  16  17  18  19  20  21  22  23  24  25 0
 3-21G
 ****
 27  28  30  31  32  35  37  42  43  44  45  46  47 0
 3-21G
 ****
 48  49 0
 3-21G
 ****


