%nproc=1
%NoSave
%Mem=1900MB
#P OB98/GEN NMR

erre ene a

0 1
  C     -929.946    -915.331    -312.386
  O     -930.980    -915.151    -313.334
  P     -932.493    -915.287    -312.806
  C     -933.252    -912.803    -312.900
  O     -932.853    -913.901    -312.076
  C     -934.278    -911.928    -312.184
  O     -935.484    -912.694    -311.967
  C     -933.809    -911.395    -310.823
  O     -934.318    -910.068    -310.671
  C     -934.508    -912.299    -309.833
  O     -934.656    -911.674    -308.557
  C     -935.815    -912.608    -310.565
  N     -936.445    -913.833    -310.088
  C     -937.022    -913.793    -308.813
  O     -936.916    -912.784    -308.120
  N     -937.664    -914.914    -308.339
  C     -937.625    -916.011    -309.031
  N     -938.274    -917.098    -308.522
  C     -936.919    -916.128    -310.323
  C     -936.382    -915.010    -310.802
  O     -932.360    -916.320    -311.593
  O     -933.473    -915.756    -313.842
  H     -935.160    -912.299    -307.978
  H     -933.168    -916.864    -311.506
  H     -936.893    -917.079    -310.849
  H     -935.866    -914.991    -311.747
  H     -936.529    -911.776    -310.446
  H     -933.922    -913.220    -309.694
  H     -932.722    -911.381    -310.729
  H     -934.539    -911.092    -312.845
  H     -938.734    -916.991    -307.624
  H     -933.713    -913.194    -313.814
  H     -938.304    -917.995    -308.986
  H     -932.362    -912.226    -313.176
  P     -933.317    -908.945    -310.120
  C     -932.467    -907.765    -312.243
  O     -932.215    -908.764    -311.279
  O     -932.492    -909.766    -309.018
  O     -933.900    -907.695    -309.543
  H     -931.881    -909.173    -308.558
  H     -931.590    -907.664    -312.878
  H     -932.677    -906.815    -311.767
  H     -933.324    -908.062    -312.864
  H     -928.997    -915.215    -312.867
  H     -930.015    -916.312    -311.965
  H     -930.044    -914.602    -311.609

 3  4  5  6  7  8  9  10  11  12  13  21  23  27  28  29  30  32 0
 6-311+G(2d,p)
 ****
 34  35 0
 6-311+G(2d,p)
 ****
 1  2  14  15  16  17  18  19  20  22  24  25  26 0
 3-21G
 ****
 31  33  36  37  38  39  40  41  42  43  44  45  46 0
 3-21G
 ****


