%nproc=1
%NoSave
%Mem=1900MB
#P OB98/GEN NMR

erre ene a

0 1
  C      -17.763    -606.768    -143.465
  O      -16.944    -607.271    -144.499
  H      -18.304    -605.882    -143.807
  H      -18.488    -607.536    -143.184
  H      -17.155    -606.517    -142.588
  P      -15.799    -606.296    -145.057
  C      -15.903    -603.830    -145.869
  O      -16.568    -605.083    -145.775
  C      -16.698    -602.896    -146.773
  O      -18.029    -602.700    -146.244
  C      -16.103    -601.500    -146.915
  O      -15.050    -601.459    -147.863
  C      -17.315    -600.728    -147.405
  O      -17.532    -600.998    -148.802
  C      -18.441    -601.345    -146.562
  N      -22.070    -599.694    -143.355
  C      -22.141    -600.372    -144.520
  N      -21.127    -600.769    -145.318
  C      -19.941    -600.399    -144.801
  C      -19.716    -599.698    -143.628
  C      -20.854    -599.346    -142.879
  N      -20.789    -598.639    -141.697
  N      -18.365    -599.469    -143.447
  C      -17.786    -600.053    -144.477
  N      -18.698    -600.620    -145.329
  O      -15.179    -607.110    -146.287
  O      -14.761    -605.882    -144.068
  H      -18.441    -600.707    -149.006
  H      -14.285    -606.775    -146.495
  H      -23.138    -600.624    -144.857
  H      -16.720    -600.093    -144.652
  H      -19.389    -601.405    -147.108
  H      -17.205    -599.649    -147.304
  H      -15.787    -601.095    -145.944
  H      -16.801    -603.377    -147.756
  H      -14.907    -603.982    -146.294
  H      -21.659    -598.279    -141.339
  H      -19.898    -598.248    -141.418
  H      -15.804    -603.401    -144.869
  P      -13.962    -600.286    -147.710
  C      -14.102    -597.748    -147.159
  O      -14.797    -598.933    -147.542
  O      -13.347    -600.169    -149.180
  O      -12.918    -600.540    -146.671
  H      -12.432    -599.816    -149.146
  H      -14.794    -596.935    -147.090
  H      -13.356    -597.520    -147.891
  H      -13.634    -597.900    -146.209

 6  7  8  9  10  11  12  13  14  15  25  28  32  33  34  35 0
 6-311+G(2d,p)
 ****
 36  39  40 0
 6-311+G(2d,p)
 ****
 1  2  3  4  5  16  17  18  19  20  21  22  23  24 0
 3-21G
 ****
 26  27  29  30  31  37  38  41  42  43  44  45  46  47 0
 3-21G
 ****
 48 0
 3-21G
 ****


