%nproc=1
%NoSave
%Mem=1900MB
#P OB98/GEN NMR

erre ene a

0 1
  C      -82.570      23.193     115.466
  O      -83.203      22.502     114.403
  P      -84.149      21.259     114.756
  C      -83.822      18.852     115.683
  O      -83.210      20.053     115.241
  C      -82.885      18.089     116.622
  O      -82.784      18.804     117.890
  C      -83.347      16.658     116.938
  O      -82.170      15.850     117.094
  C      -84.029      16.825     118.283
  O      -84.156      15.607     119.002
  C      -83.102      17.857     118.930
  N      -83.705      18.514     120.091
  C      -83.499      17.927     121.336
  O      -82.848      16.897     121.511
  N      -84.127      18.530     122.392
  C      -84.991      19.584     122.317
  O      -85.612      20.004     123.286
  C      -85.171      20.164     120.975
  C      -84.529      19.612     119.943
  O      -84.674      20.780     113.321
  O      -85.274      21.576     115.684
  H      -84.757      15.031     118.496
  H      -85.575      21.115     113.159
  H      -83.979      18.126     123.302
  H      -85.834      21.014     120.883
  H      -84.658      20.006     118.939
  H      -82.158      17.383     119.231
  H      -85.037      17.231     118.132
  H      -84.004      16.229     116.175
  H      -81.881      18.076     116.176
  H      -84.052      18.226     114.819
  H      -84.767      19.086     116.190
  P      -82.212      14.345     116.533
  C      -83.797      12.301     116.912
  O      -83.398      13.599     117.303
  O      -80.882      13.743     117.193
  O      -82.229      14.262     115.039
  H      -80.773      14.005     118.122
  H      -82.949      11.709     116.558
  H      -84.540      12.376     116.116
  H      -84.246      11.794     117.770
  H      -81.977      23.991     115.070
  H      -81.942      22.517     116.007
  H      -83.313      23.593     116.124

 3  4  5  6  7  8  9  10  11  12  13  23  28  29  30  31  32 0
 6-311+G(2d,p)
 ****
 33  34 0
 6-311+G(2d,p)
 ****
 1  2  14  15  16  17  18  19  20  21  22  24  25  26 0
 3-21G
 ****
 27  35  36  37  38  39  40  41  42  43  44  45 0
 3-21G
 ****


