%nproc=1
%NoSave
%Mem=1900MB
#P OB98/GEN NMR

erre ene a

0 1
  C     -189.599     -73.697    -218.330
  O     -189.192     -72.649    -219.212
  P     -190.120     -71.343    -219.256
  C     -188.104     -69.780    -218.771
  O     -189.410     -70.194    -218.394
  C     -187.753     -68.459    -218.087
  O     -188.532     -67.362    -218.612
  C     -188.026     -68.462    -216.589
  O     -187.039     -69.204    -215.893
  C     -188.020     -66.965    -216.293
  O     -186.671     -66.478    -216.196
  C     -188.689     -66.389    -217.551
  N     -192.059     -63.043    -215.649
  C     -190.709     -63.050    -215.672
  N     -189.884     -63.980    -216.197
  C     -190.587     -64.981    -216.752
  C     -191.965     -65.108    -216.809
  C     -192.718     -64.080    -216.218
  N     -194.093     -64.080    -216.182
  N     -192.319     -66.273    -217.456
  C     -191.175     -66.850    -217.764
  N     -190.100     -66.100    -217.370
  O     -191.386     -71.758    -218.370
  O     -190.523     -70.941    -220.638
  H     -186.166     -66.868    -216.939
  H     -192.163     -71.893    -218.941
  H     -190.225     -62.196    -215.207
  H     -191.075     -67.803    -218.268
  H     -188.212     -65.461    -217.887
  H     -188.528     -66.711    -215.360
  H     -189.019     -68.881    -216.385
  H     -186.691     -68.251    -218.271
  H     -188.042     -69.663    -219.855
  H     -194.554     -63.344    -215.670
  H     -194.592     -64.888    -216.526
  H     -187.392     -70.567    -218.499
  P     -187.400     -70.705    -215.461
  C     -185.304     -71.639    -216.614
  O     -186.718     -71.604    -216.607
  O     -188.952     -70.783    -215.831
  O     -187.042     -71.062    -214.058
  H     -189.133     -70.405    -216.711
  H     -184.976     -72.308    -217.414
  H     -184.930     -72.017    -215.659
  H     -184.906     -70.639    -216.803
  H     -188.902     -74.506    -218.392
  H     -190.572     -74.042    -218.611
  H     -189.628     -73.327    -217.326

 3  4  5  6  7  8  9  10  11  12  22  25  29  30  31  32 0
 6-311+G(2d,p)
 ****
 33  36  37 0
 6-311+G(2d,p)
 ****
 1  2  13  14  15  16  17  18  19  20  21  23  24  26 0
 3-21G
 ****
 27  28  34  35  38  39  40  41  42  43  44  45  46  47  48 0
 3-21G
 ****


