%nproc=1
%NoSave
%Mem=1900MB
#P OB98/GEN NMR

erre ene a

0 1
  C       20.007      -6.618      -3.978
  O       20.812      -7.250      -3.004
  P       22.305      -7.732      -3.332
  C       23.370      -5.492      -2.655
  O       23.119      -6.402      -3.715
  C       24.510      -4.534      -3.001
  O       24.661      -3.554      -1.938
  C       25.873      -5.210      -3.205
  O       26.550      -4.453      -4.212
  C       26.538      -5.016      -1.856
  O       27.951      -5.163      -1.915
  C       26.030      -3.618      -1.483
  N       26.149      -3.356      -0.053
  C       26.440      -2.044       0.324
  O       26.660      -1.186      -0.534
  N       26.529      -1.742       1.659
  C       26.441      -2.692       2.536
  N       26.533      -2.334       3.844
  C       26.261      -4.111       2.175
  C       26.109      -4.367       0.878
  O       22.411      -8.840      -4.324
  O       22.906      -8.102      -1.897
  H       28.155      -5.994      -2.397
  H       22.563      -8.981      -1.596
  H       26.250      -4.875       2.937
  H       25.970      -5.376       0.517
  H       26.592      -2.845      -2.024
  H       26.155      -5.760      -1.147
  H       25.802      -6.261      -3.492
  H       24.226      -3.986      -3.908
  H       26.642      -1.348       4.048
  H       23.655      -6.072      -1.772
  H       26.395      -2.981       4.606
  H       22.457      -4.939      -2.412
  P       28.147      -4.481      -4.342
  C       28.233      -6.692      -5.626
  O       28.583      -6.017      -4.432
  O       28.878      -3.679      -3.315
  O       28.435      -3.933      -5.821
  H       29.373      -3.678      -5.896
  H       28.811      -7.617      -5.694
  H       28.446      -6.073      -6.502
  H       27.168      -6.939      -5.608
  H       19.054      -6.380      -3.553
  H       19.872      -7.276      -4.811
  H       20.485      -5.719      -4.307

 3  4  5  6  7  8  9  10  11  12  13  23  27  28  29  30  32 0
 6-311+G(2d,p)
 ****
 34  35 0
 6-311+G(2d,p)
 ****
 1  2  14  15  16  17  18  19  20  21  22  24  25  26 0
 3-21G
 ****
 31  33  36  37  38  39  40  41  42  43  44  45  46 0
 3-21G
 ****


