%nproc=1
%NoSave
%Mem=1900MB
#P OB98/GEN NMR

erre ene a

0 1
  C     -279.911     710.208    -179.185
  O     -280.261     709.103    -178.353
  P     -281.231     707.975    -178.939
  C     -283.818     707.585    -178.876
  O     -282.730     708.518    -178.837
  C     -285.156     708.319    -178.867
  O     -285.321     708.998    -177.591
  C     -285.317     709.360    -179.962
  O     -286.710     709.386    -180.352
  C     -284.982     710.667    -179.261
  O     -285.470     711.817    -179.919
  C     -285.620     710.391    -177.895
  N     -285.139     711.301    -176.842
  C     -285.766     712.514    -176.714
  O     -286.711     712.907    -177.425
  N     -285.264     713.371    -175.765
  C     -284.147     713.138    -175.019
  O     -283.648     713.991    -174.264
  C     -283.513     711.825    -175.191
  C     -284.035     710.952    -176.079
  O     -281.177     706.805    -177.836
  O     -280.851     707.461    -180.298
  H     -285.274     712.586    -179.361
  H     -280.575     706.109    -178.117
  H     -285.709     714.262    -175.649
  H     -282.635     711.591    -174.574
  H     -283.569     709.996    -176.237
  H     -286.710     710.463    -177.973
  H     -283.892     710.762    -179.171
  H     -284.690     709.187    -180.849
  H     -285.943     707.560    -178.921
  H     -283.743     706.930    -178.013
  H     -283.725     706.961    -179.791
  P     -287.078     709.002    -181.875
  C     -287.437     710.407    -184.057
  O     -286.899     710.330    -182.746
  O     -288.659     708.834    -181.763
  O     -286.376     707.753    -182.378
  H     -289.087     709.524    -181.221
  H     -288.381     709.852    -184.129
  H     -286.728     710.018    -184.764
  H     -287.633     711.456    -184.283
  H     -279.261     710.867    -178.648
  H     -280.798     710.735    -179.470
  H     -279.412     709.851    -180.061

 3  4  5  6  7  8  9  10  11  12  13  23  28  29  30  31  32 0
 6-311+G(2d,p)
 ****
 33  34 0
 6-311+G(2d,p)
 ****
 1  2  14  15  16  17  18  19  20  21  22  24  25  26 0
 3-21G
 ****
 27  35  36  37  38  39  40  41  42  43  44  45 0
 3-21G
 ****


