%nproc=1
%NoSave
%Mem=1900MB
#P OB98/GEN NMR

erre ene a

0 1
  C       62.745     406.756    -302.760
  O       61.829     405.704    -302.985
  H       62.185     407.679    -302.586
  H       63.383     406.891    -303.642
  H       63.362     406.544    -301.883
  P       62.450     404.243    -303.221
  C       61.096     403.666    -305.371
  O       61.325     403.395    -303.991
  C       60.505     402.436    -306.048
  O       61.408     401.319    -305.894
  C       59.176     401.967    -305.457
  O       58.085     402.748    -305.921
  C       59.134     400.520    -305.932
  O       58.633     400.423    -307.271
  C       60.612     400.111    -305.889
  N       60.416     395.416    -303.911
  C       60.088     395.896    -305.131
  N       60.192     397.164    -305.586
  C       60.698     397.969    -304.637
  C       61.070     397.622    -303.346
  C       60.918     396.271    -302.987
  N       61.219     395.786    -301.736
  N       61.507     398.732    -302.652
  C       61.404     399.734    -303.508
  N       60.928     399.315    -304.722
  O       62.462     403.614    -301.745
  O       63.803     404.220    -303.849
  H       58.805     399.506    -307.567
  H       63.338     403.753    -301.337
  H       59.687     395.166    -305.835
  H       61.656     400.767    -303.295
  H       60.904     399.529    -306.770
  H       58.486     399.914    -305.294
  H       59.226     401.982    -304.358
  H       60.403     402.644    -307.122
  H       62.053     403.920    -305.849
  H       60.415     404.520    -305.455
  H       61.061     394.811    -301.539
  H       61.490     396.438    -301.012
  P       57.252     403.604    -304.850
  C       55.289     401.897    -304.852
  O       55.699     403.238    -305.046
  O       57.364     405.098    -305.406
  O       57.743     403.490    -303.444
  H       58.050     405.598    -304.918
  H       54.235     401.819    -305.019
  H       55.515     401.596    -303.850
  H       55.807     401.262    -305.540

 6  7  8  9  10  11  12  13  14  15  25  28  32  33  34  35 0
 6-311+G(2d,p)
 ****
 36  37  40 0
 6-311+G(2d,p)
 ****
 1  2  3  4  5  16  17  18  19  20  21  22  23  24 0
 3-21G
 ****
 26  27  29  30  31  38  39 41  42  43  44  45  46  47  48 0
 3-21G
 ****


