%nproc=1
%NoSave
%Mem=1900MB
#P OB98/GEN NMR

erre ene a

0 1
  C      -50.615      36.944     -48.960
  O      -49.669      37.934     -49.311
  H      -50.177      35.947     -49.059
  H      -50.913      37.098     -47.920
  H      -51.499      37.028     -49.597
  P      -49.025      37.815     -50.775
  C      -46.816      36.795     -49.885
  O      -47.959      36.616     -50.707
  C      -46.183      35.446     -49.563
  O      -47.097      34.636     -48.796
  C      -45.825      34.604     -50.782
  O      -44.613      35.033     -51.387
  C      -45.674      33.232     -50.140
  O      -44.378      33.125     -49.523
  C      -46.770      33.248     -49.063
  N      -49.188      28.719     -49.170
  C      -47.970      29.080     -48.706
  N      -47.389      30.296     -48.720
  C      -48.206      31.208     -49.274
  C      -49.472      30.990     -49.789
  C      -49.963      29.675     -49.730
  N      -51.200      29.315     -50.221
  N      -50.016      32.164     -50.261
  C      -49.095      33.079     -50.036
  N      -47.979      32.548     -49.446
  O      -48.104      39.122     -50.886
  O      -50.003      37.739     -51.900
  H      -44.312      32.219     -49.167
  H      -48.127      39.448     -51.805
  H      -47.383      28.282     -48.258
  H      -49.195      34.131     -50.277
  H      -46.412      32.819     -48.120
  H      -45.765      32.411     -50.855
  H      -46.649      34.578     -51.503
  H      -45.296      35.629     -48.943
  H      -47.112      37.283     -48.950
  H      -51.573      28.414     -49.975
  H      -51.777      30.041     -50.632
  H      -46.100      37.436     -50.409
  P      -44.543      35.018     -52.992
  C      -42.850      33.064     -53.205
  O      -44.190      33.505     -53.393
  O      -43.185      35.807     -53.302
  O      -45.712      35.630     -53.684
  H      -43.228      36.203     -54.194
  H      -42.764      32.043     -53.513
  H      -42.589      33.148     -52.171
  H      -42.190      33.670     -53.790

 6  7  8  9  10  11  12  13  14  15  25  28  32  33  34  35 0
 6-311+G(2d,p)
 ****
 36  39  40 0
 6-311+G(2d,p)
 ****
 1  2  3  4  5  16  17  18  19  20  21  22  23  24 0
 3-21G
 ****
 26  27  29  30  31  37  38  41  42  43  44  45  46  47  48 0
 3-21G
 ****


