%nproc=1
%NoSave
%Mem=1900MB
#P OB98/GEN NMR

erre ene a

0 1
  C     -301.964      97.886    -163.885
  O     -301.822      99.290    -163.767
  H     -301.153      97.504    -164.508
  H     -302.920      97.650    -164.362
  H     -301.914      97.420    -162.901
  P     -302.918     100.057    -162.869
  C     -302.100     102.472    -163.413
  O     -303.133     101.497    -163.542
  C     -302.341     103.608    -164.401
  O     -302.067     103.150    -165.752
  C     -303.779     104.111    -164.427
  O     -304.073     104.973    -163.340
  C     -303.820     104.807    -165.777
  O     -303.297     106.130    -165.711
  C     -302.910     103.922    -166.646
  N     -306.094     103.690    -170.631
  C     -305.430     104.721    -170.070
  N     -304.588     104.690    -169.012
  C     -304.434     103.442    -168.558
  C     -305.043     102.289    -169.035
  C     -305.915     102.432    -170.134
  N     -306.598     101.398    -170.698
  N     -304.674     101.199    -168.280
  C     -303.853     101.670    -167.375
  N     -303.666     103.019    -167.503
  O     -302.104     100.384    -161.522
  O     -304.158      99.280    -162.594
  H     -302.350     106.045    -165.489
  H     -302.334      99.730    -160.840
  H     -305.609     105.691    -170.503
  H     -303.353     101.079    -166.593
  H     -302.246     104.511    -167.285
  H     -304.848     104.870    -166.155
  H     -304.476     103.256    -164.441
  H     -301.646     104.433    -164.174
  H     -301.130     102.005    -163.626
  H     -302.088     102.845    -162.381
  H     -307.265     101.597    -171.436
  H     -306.567     100.491    -170.252
  P     -305.299     104.576    -162.390
  C     -305.724     107.071    -161.725
  O     -306.252     105.870    -162.278
  O     -304.634     104.462    -160.933
  O     -306.008     103.327    -162.784
  H     -305.077     103.750    -160.424
  H     -306.482     107.826    -161.724
  H     -304.894     107.400    -162.314
  H     -305.400     106.889    -160.722

 6  7  8  9  10  11  12  13  14  15  25  28  32  33  34  35 0
 6-311+G(2d,p)
 ****
 36  37  40 0
 6-311+G(2d,p)
 ****
 1  2  3  4  5  16  17  18  19  20  21  22  23  24 0
 3-21G
 ****
 26  27  29  30  31  38  39 41  42  43  44  45  46  47  48 0
 3-21G
 ****


