%nproc=1
%NoSave
%Mem=1900MB
#P OB98/GEN NMR

erre ene a

0 1
  C     -336.808     173.694    -370.495
  O     -336.671     173.979    -371.871
  H     -337.340     174.505    -369.993
  H     -337.384     172.771    -370.380
  H     -335.824     173.555    -370.037
  P     -335.886     175.324    -372.256
  C     -334.977     174.129    -374.370
  O     -335.625     175.277    -373.843
  C     -334.812     174.270    -375.880
  O     -336.129     174.382    -376.476
  C     -333.984     175.490    -376.322
  O     -332.864     175.069    -377.106
  C     -334.923     176.283    -377.213
  O     -334.281     176.827    -378.365
  C     -335.994     175.266    -377.595
  N     -338.322     178.462    -380.804
  C     -337.214     177.706    -380.948
  N     -336.705     176.794    -380.096
  C     -337.483     176.679    -379.003
  C     -338.652     177.367    -378.728
  C     -339.062     178.313    -379.681
  N     -340.160     179.127    -379.511
  N     -339.165     176.989    -377.500
  C     -338.298     176.119    -377.026
  N     -337.254     175.916    -377.891
  O     -334.429     175.092    -371.631
  O     -336.506     176.585    -371.756
  H     -333.911     176.074    -378.862
  H     -334.158     175.883    -371.128
  H     -336.655     177.855    -381.867
  H     -338.348     175.645    -376.055
  H     -335.703     174.667    -378.467
  H     -335.350     177.110    -376.634
  H     -333.639     176.095    -375.476
  H     -334.360     173.347    -376.266
  H     -335.580     173.239    -374.160
  H     -340.313     179.854    -380.189
  H     -340.653     179.094    -378.628
  H     -334.004     174.011    -373.881
  P     -331.435     175.033    -376.364
  C     -330.394     172.965    -377.551
  O     -330.384     174.376    -377.381
  O     -331.636     173.895    -375.256
  O     -331.033     176.336    -375.762
  H     -331.042     174.056    -374.500
  H     -329.640     172.685    -378.257
  H     -331.353     172.656    -377.912
  H     -330.197     172.491    -376.612

 6  7  8  9  10  11  12  13  14  15  25  28  32  33  34  35 0
 6-311+G(2d,p)
 ****
 36  39  40 0
 6-311+G(2d,p)
 ****
 1  2  3  4  5  16  17  18  19  20  21  22  23  24 0
 3-21G
 ****
 26  27  29  30  31  37  38  41  42  43  44  45  46  47  48 0
 3-21G
 ****


