%nproc=1
%NoSave
%Mem=1900MB
#P OB98/GEN NMR

erre ene a

0 1
  C      -38.373     -69.553      67.559
  O      -38.249     -68.160      67.772
  H      -37.399     -70.021      67.730
  H      -38.690     -69.764      66.534
  H      -39.093     -69.975      68.266
  P      -39.463     -67.213      67.317
  C      -40.648     -66.726      65.077
  O      -39.547     -67.367      65.717
  C      -40.912     -67.328      63.696
  O      -41.566     -68.609      63.814
  C      -41.840     -66.497      62.821
  O      -41.312     -65.255      62.416
  C      -42.263     -67.508      61.765
  O      -41.299     -67.639      60.721
  C      -42.323     -68.812      62.599
  N      -43.694     -69.228      62.880
  C      -44.532     -69.349      61.777
  O      -44.179     -69.105      60.623
  N      -45.819     -69.732      62.046
  C      -46.345     -69.953      63.286
  O      -47.516     -70.275      63.461
  C      -45.422     -69.772      64.416
  C      -44.155     -69.424      64.166
  O      -39.387     -65.791      67.787
  O      -40.766     -67.990      67.823
  H      -41.611     -68.356      60.136
  H      -41.559     -67.398      67.822
  H      -46.439     -69.841      61.258
  H      -45.809     -69.926      65.414
  H      -43.453     -69.285      64.985
  H      -41.826     -69.630      62.058
  H      -43.213     -67.240      61.298
  H      -42.740     -66.263      63.404
  H      -39.946     -67.493      63.207
  H      -40.399     -65.665      64.965
  H      -41.540     -66.818      65.707
  P      -42.150     -64.149      61.629
  C      -42.889     -63.815      59.141
  O      -42.504     -64.717      60.172
  O      -41.668     -62.739      61.736
  O      -43.582     -64.234      62.377
  H      -43.956     -63.329      62.383
  H      -43.087     -64.363      58.243
  H      -42.098     -63.116      58.965
  H      -43.771     -63.288      59.439

 6  7  8  9  10  11  12  13  14  15  16  26  31  32  33  34  35 0
 6-311+G(2d,p)
 ****
 36  37 0
 6-311+G(2d,p)
 ****
 1  2  3  4  5  17  18  19  20  21  22  23  24  25 0
 3-21G
 ****
 27  28  29  30  38  39  40  41  42  43  44  45 0
 3-21G
 ****


