%nproc=1
%NoSave
%Mem=1900MB
#P OB98/GEN NMR

erre ene a

0 1
  C      239.986    -137.567      62.401
  O      240.249    -138.068      61.106
  H      239.424    -136.631      62.337
  H      239.386    -138.300      62.946
  H      240.922    -137.402      62.942
  P      241.131    -137.141      60.136
  C      241.815    -138.811      58.265
  O      240.950    -137.754      58.663
  C      241.447    -139.269      56.859
  O      240.204    -140.006      56.886
  C      241.235    -138.135      55.863
  O      242.456    -137.643      55.344
  C      240.428    -138.850      54.794
  O      241.301    -139.665      53.991
  C      239.503    -139.734      55.637
  N      234.901    -138.514      53.762
  C      235.972    -139.113      53.204
  N      237.163    -139.398      53.768
  C      237.188    -138.996      55.049
  C      236.175    -138.367      55.754
  C      234.979    -138.127      55.058
  N      233.888    -137.504      55.621
  N      236.586    -138.075      57.041
  C      237.811    -138.555      57.117
  N      238.225    -139.112      55.937
  O      242.638    -137.534      60.510
  O      240.881    -135.672      60.237
  H      240.740    -140.348      53.574
  H      243.248    -136.825      60.230
  H      235.858    -139.402      52.161
  H      238.436    -138.520      58.000
  H      239.291    -140.698      55.162
  H      239.915    -138.167      54.115
  H      240.627    -137.329      56.293
  H      242.231    -139.955      56.509
  H      241.705    -139.646      58.960
  H      233.156    -137.219      54.988
  H      233.992    -137.083      56.531
  H      242.850    -138.456      58.293
  P      242.623    -136.050      55.232
  C      245.206    -136.069      55.553
  O      244.109    -135.801      54.682
  O      242.707    -135.586      56.760
  O      241.530    -135.358      54.485
  H      242.400    -134.664      56.860
  H      246.124    -135.856      55.046
  H      245.189    -137.099      55.842
  H      245.128    -135.453      56.424

 6  7  8  9  10  11  12  13  14  15  25  28  32  33  34  35 0
 6-311+G(2d,p)
 ****
 36  39  40 0
 6-311+G(2d,p)
 ****
 1  2  3  4  5  16  17  18  19  20  21  22  23  24 0
 3-21G
 ****
 26  27  29  30  31  37  38  41  42  43  44  45  46  47 0
 3-21G
 ****
 48 0
 3-21G
 ****


