%nproc=1
%NoSave
%Mem=1900MB
#P OB98/GEN NMR

erre ene a

0 1
  C      301.472    -896.180     -32.434
  O      301.944    -897.500     -32.575
  H      300.640    -896.180     -31.722
  H      301.111    -895.800     -33.395
  H      302.255    -895.510     -32.054
  P      303.354    -897.740     -33.302
  C      304.326    -898.470     -31.024
  O      304.486    -897.660     -32.172
  C      305.620    -898.530     -30.204
  O      306.586    -899.350     -30.914
  C      306.246    -897.140     -30.038
  O      307.012    -897.040     -28.841
  C      307.168    -897.040     -31.238
  O      308.227    -896.100     -31.057
  C      307.651    -898.490     -31.354
  N      311.460    -898.920     -34.727
  C      311.464    -898.310     -33.493
  N      312.629    -897.750     -33.097
  N      310.405    -898.250     -32.724
  C      309.296    -898.790     -33.271
  C      309.161    -899.400     -34.501
  C      310.348    -899.500     -35.332
  O      310.402    -900.000     -36.443
  N      307.873    -899.810     -34.732
  C      307.220    -899.460     -33.635
  N      308.046    -898.850     -32.713
  O      303.585    -896.390     -34.133
  O      303.431    -898.950     -34.189
  H      308.838    -896.180     -31.815
  H      304.210    -896.540     -34.873
  H      312.320    -898.970     -35.265
  H      306.163    -899.630     -33.459
  H      308.523    -898.670     -30.707
  H      306.594    -896.720     -32.100
  H      313.397    -897.610     -33.736
  H      305.504    -896.340     -30.067
  H      312.558    -897.040     -32.347
  H      305.429    -899.030     -29.243
  H      304.044    -899.470     -31.377
  H      303.496    -898.110     -30.412
  P      306.915    -895.690     -27.970
  C      306.049    -896.830     -25.745
  O      305.876    -895.880     -26.786
  O      306.173    -894.660     -28.962
  O      308.225    -895.160     -27.501
  H      306.768    -893.920     -29.196
  H      305.223    -896.771     -25.068
  H      306.957    -896.621     -25.219
  H      306.098    -897.813     -26.164

 6  7  8  9  10  11  12  13  14  15  26  29  33  34 0
 6-311+G(2d,p)
 ****
 36  38  39  40  41 0
 6-311+G(2d,p)
 ****
 1  2  3  4  5  16  17  18  19  20  21  22  23  24  25 0
 3-21G
 ****
 27  28  30  31  32  35  37  42  43  44  45  46  47 0
 3-21G
 ****
 48  49 0
 3-21G
 ****


