%nproc=1
%NoSave
%Mem=1900MB
#P OB98/GEN NMR

erre ene a

0 1
  C      -16.879    -419.143    -499.806
  O      -18.054    -419.309    -500.566
  H      -16.934    -419.807    -498.937
  H      -16.797    -418.111    -499.443
  H      -15.996    -419.404    -500.389
  P      -18.267    -418.420    -501.889
  C      -19.157    -416.246    -500.842
  O      -18.028    -416.893    -501.417
  C      -18.854    -414.775    -500.551
  O      -17.857    -414.682    -499.497
  C      -18.306    -414.000    -501.762
  O      -18.992    -412.744    -501.881
  C      -16.854    -413.744    -501.403
  O      -16.299    -412.611    -502.070
  C      -16.951    -413.632    -499.873
  N      -15.650    -413.760    -499.236
  C      -15.157    -412.613    -498.591
  O      -15.830    -411.572    -498.588
  N      -13.911    -412.648    -498.025
  C      -13.191    -413.724    -498.131
  N      -11.955    -413.684    -497.563
  C      -13.652    -414.954    -498.827
  C      -14.885    -414.899    -499.337
  O      -19.557    -418.661    -502.607
  O      -16.978    -418.714    -502.793
  H      -16.892    -411.841    -501.933
  H      -17.194    -418.501    -503.729
  H      -13.012    -415.811    -498.884
  H      -15.304    -415.747    -499.863
  H      -17.397    -412.672    -499.575
  H      -16.254    -414.626    -501.674
  H      -18.397    -414.547    -502.700
  H      -19.762    -414.297    -500.154
  H      -11.667    -412.825    -497.117
  H      -19.434    -416.769    -499.926
  H      -11.292    -414.453    -497.612
  H      -19.988    -416.297    -501.557
  P      -20.154    -412.682    -502.999
  C      -19.650    -410.726    -504.643
  O      -19.505    -412.116    -504.356
  O      -21.087    -411.486    -502.490
  O      -20.915    -413.960    -503.143
  H      -21.943    -411.841    -502.177
  H      -19.169    -410.502    -505.572
  H      -19.200    -410.151    -503.861
  H      -20.690    -410.482    -504.711

 6  7  8  9  10  11  12  13  14  15  16  26  30  31  32  33  35 0
 6-311+G(2d,p)
 ****
 37  38 0
 6-311+G(2d,p)
 ****
 1  2  3  4  5  17  18  19  20  21  22  23  24  25 0
 3-21G
 ****
 27  28  29  34  36  39  40  41  42  43  44  45  46 0
 3-21G
 ****


