%nproc=1
%NoSave
%Mem=1900MB
#P OB98/GEN NMR

erre ene a

0 1
  C      -50.436    -284.349     -98.669
  O      -49.224    -285.049     -98.871
  H      -51.001    -284.350     -99.603
  H      -50.223    -283.314     -98.388
  H      -51.036    -284.831     -97.892
  P      -48.336    -285.342     -97.568
  C      -47.584    -282.903     -97.101
  O      -47.205    -284.204     -97.523
  C      -46.354    -282.008     -96.981
  O      -45.455    -282.525     -95.974
  C      -45.535    -281.890     -98.263
  O      -46.079    -280.920     -99.148
  C      -44.200    -281.431     -97.700
  O      -44.266    -280.029     -97.368
  C      -44.092    -282.274     -96.422
  N      -39.658    -284.494     -97.481
  C      -39.981    -283.154     -97.395
  N      -38.983    -282.278     -97.638
  N      -41.178    -282.708     -97.106
  C      -42.079    -283.698     -96.899
  C      -41.880    -285.060     -96.953
  C      -40.553    -285.538     -97.267
  O      -40.206    -286.713     -97.332
  N      -43.033    -285.746     -96.675
  C      -43.932    -284.804     -96.475
  N      -43.405    -283.541     -96.606
  O      -47.515    -286.660     -97.968
  O      -49.100    -285.543     -96.304
  H      -44.450    -279.553     -98.198
  H      -47.410    -287.219     -97.173
  H      -38.726    -284.783     -97.718
  H      -44.971    -284.981     -96.229
  H      -43.573    -281.743     -95.615
  H      -43.381    -281.555     -98.408
  H      -38.052    -282.553     -97.914
  H      -45.411    -282.864     -98.752
  H      -39.185    -281.290     -97.549
  H      -46.687    -281.018     -96.643
  H      -48.080    -282.968     -96.128
  H      -48.284    -282.483     -97.832
  P      -46.898    -281.456    -100.425
  C      -44.682    -282.217    -101.548
  O      -45.856    -281.422    -101.647
  O      -47.890    -280.243    -100.749
  O      -47.623    -282.738    -100.214
  H      -48.665    -280.570    -101.247
  H      -44.090    -282.091    -102.431
  H      -44.956    -283.246    -101.446
  H      -44.116    -281.912    -100.693

 6  7  8  9  10  11  12  13  14  15  26  29  33  34 0
 6-311+G(2d,p)
 ****
 36  38  39  40  41 0
 6-311+G(2d,p)
 ****
 1  2  3  4  5  16  17  18  19  20  21  22  23  24  25 0
 3-21G
 ****
 27  28  30  31  32  35  37  42  43  44  45  46  47 0
 3-21G
 ****
 48  49 0
 3-21G
 ****


