%nproc=1
%NoSave
%Mem=1900MB
#P OB98/GEN NMR

erre ene a

0 1
  C      852.859    -236.920     497.500
  O      851.759    -236.762     496.629
  H      852.529    -236.701     498.518
  H      853.667    -236.239     497.234
  H      853.221    -237.954     497.471
  P      852.006    -236.925     495.051
  C      850.727    -239.140     494.703
  O      850.753    -237.741     494.472
  C      849.310    -239.696     494.510
  O      848.505    -239.363     495.688
  C      848.574    -239.127     493.275
  O      847.666    -240.135     492.816
  C      847.808    -237.965     493.898
  O      846.817    -237.485     493.029
  C      847.365    -238.599     495.214
  N      846.936    -237.614     496.200
  C      845.567    -237.301     496.212
  O      844.804    -237.859     495.416
  N      845.109    -236.378     497.109
  C      845.954    -235.744     497.867
  N      845.430    -234.812     498.722
  C      847.405    -235.990     497.841
  C      847.829    -236.932     496.993
  O      853.347    -237.457     494.655
  O      851.772    -235.446     494.476
  H      846.259    -238.223     492.692
  H      852.629    -235.042     494.253
  H      848.069    -235.427     498.485
  H      848.885    -237.185     496.902
  H      846.546    -239.303     495.049
  H      848.488    -237.125     494.097
  H      849.252    -238.826     492.479
  H      849.360    -240.791     494.466
  H      844.430    -234.669     498.696
  H      851.059    -239.317     495.731
  H      845.994    -234.252     499.347
  H      851.410    -239.652     494.016
  P      846.876    -240.009     491.422
  C      847.909    -242.168     490.444
  O      846.713    -241.471     490.785
  O      847.434    -238.999     490.486
  O      845.373    -239.622     491.841
  H      844.976    -239.078     491.136
  H      847.660    -243.123     490.032
  H      848.506    -242.303     491.322
  H      848.459    -241.601     489.722

 6  7  8  9  10  11  12  13  14  15  16  26  30  31  32  33  35 0
 6-311+G(2d,p)
 ****
 37  38 0
 6-311+G(2d,p)
 ****
 1  2  3  4  5  17  18  19  20  21  22  23  24  25 0
 3-21G
 ****
 27  28  29  34  36  39  40  41  42  43  44  45  46 0
 3-21G
 ****


