%nproc=1
%NoSave
%Mem=1900MB
#P OB98/GEN NMR

erre ene a

0 1
  C     -445.865    -446.692    -895.500
  O     -446.936    -446.600    -894.590
  P     -448.221    -445.673    -894.920
  C     -448.802    -443.174    -894.940
  O     -447.759    -444.150    -894.800
  C     -448.394    -441.872    -894.280
  O     -447.172    -441.327    -894.860
  C     -449.421    -440.757    -894.400
  O     -450.536    -440.954    -893.560
  C     -448.602    -439.540    -894.010
  O     -448.484    -439.421    -892.590
  C     -447.232    -439.889    -894.630
  N     -446.946    -439.178    -895.870
  C     -446.730    -437.797    -895.780
  O     -446.820    -437.244    -894.670
  N     -446.407    -437.114    -896.920
  C     -446.405    -437.687    -898.070
  N     -446.002    -436.953    -899.130
  C     -446.795    -439.102    -898.230
  C     -447.050    -439.784    -897.120
  O     -449.465    -446.013    -894.170
  O     -448.402    -445.875    -896.510
  H     -449.369    -446.067    -896.680
  H     -449.379    -439.183    -892.250
  H     -446.855    -439.513    -899.230
  H     -447.297    -440.835    -897.150
  H     -446.405    -439.678    -893.900
  H     -449.020    -438.624    -894.380
  H     -449.724    -440.664    -895.460
  H     -448.188    -442.056    -893.180
  H     -445.749    -436.003    -898.960
  H     -449.685    -443.562    -894.480
  H     -445.702    -437.383    -900.000
  H     -448.978    -443.007    -896.010
  P     -451.900    -440.173    -893.990
  C     -452.565    -437.654    -893.870
  O     -451.798    -438.706    -893.310
  O     -453.023    -440.886    -893.080
  O     -452.245    -440.205    -895.430
  H     -453.858    -440.946    -893.570
  H     -452.632    -436.857    -893.140
  H     -453.563    -438.010    -894.140
  H     -452.040    -437.259    -894.790
  H     -445.117    -447.348    -895.106
  H     -445.443    -445.721    -895.653
  H     -446.221    -447.077    -896.432

 3  4  5  6  7  8  9  10  11  12  13  24  27  28  29  30  32 0
 6-311+G(2d,p)
 ****
 34  35 0
 6-311+G(2d,p)
 ****
 1  2  14  15  16  17  18  19  20  21  22  23  25  26 0
 3-21G
 ****
 31  33  36  37  38  39  40  41  42  43  44  45  46 0
 3-21G
 ****


