%nproc=1
%NoSave
%Mem=1900MB
#P OB98/GEN NMR

erre ene a

0 1
  C      203.195    -246.397     128.861
  O      203.394    -247.241     127.743
  H      202.153    -246.070     128.869
  H      203.840    -245.517     128.806
  H      203.395    -246.949     129.784
  P      204.900    -247.631     127.351
  C      205.308    -249.959     128.383
  O      205.434    -248.550     128.558
  C      206.052    -250.721     129.479
  O      207.433    -250.311     129.539
  C      205.511    -250.481     130.880
  O      204.215    -250.983     131.111
  C      206.665    -250.966     131.746
  O      206.655    -252.380     131.923
  C      207.886    -250.546     130.892
  N      208.575    -249.381     131.441
  C      209.546    -249.644     132.397
  O      209.822    -250.770     132.797
  N      210.185    -248.545     132.912
  C      209.912    -247.248     132.608
  O      210.503    -246.304     133.122
  C      208.843    -247.033     131.617
  C      208.233    -248.090     131.085
  O      205.803    -246.479     127.021
  O      204.728    -248.677     126.152
  H      206.068    -252.569     132.680
  H      205.576    -248.803     125.661
  H      210.905    -248.714     133.599
  H      208.593    -246.012     131.359
  H      207.445    -247.959     130.350
  H      208.610    -251.371     130.836
  H      206.650    -250.514     132.741
  H      205.444    -249.396     131.039
  H      206.033    -251.787     129.223
  H      205.742    -250.214     127.411
  H      204.249    -250.233     128.382
  P      203.293    -250.534     132.329
  C      201.960    -248.560     131.249
  O      202.963    -248.971     132.170
  O      203.677    -251.036     133.683
  O      201.881    -251.218     131.935
  H      201.448    -251.476     132.772
  H      201.871    -247.494     131.271
  H      201.024    -249.002     131.520
  H      202.231    -248.875     130.263

 6  7  8  9  10  11  12  13  14  15  16  26  31  32  33  34  35 0
 6-311+G(2d,p)
 ****
 36  37 0
 6-311+G(2d,p)
 ****
 1  2  3  4  5  17  18  19  20  21  22  23  24  25 0
 3-21G
 ****
 27  28  29  30  38  39  40  41  42  43  44  45 0
 3-21G
 ****


