%nproc=1
%NoSave
%Mem=1900MB
#P OB98/GEN NMR

erre ene a

0 1
  C     -113.981    -294.098      59.394
  O     -114.636    -295.226      58.824
  P     -114.878    -296.509      59.762
  C     -112.356    -297.092      59.653
  O     -113.684    -297.543      59.460
  C     -111.348    -298.043      58.997
  O     -110.011    -297.491      59.168
  C     -111.334    -299.460      59.577
  O     -111.017    -300.356      58.502
  C     -110.173    -299.427      60.556
  O     -109.677    -300.728      60.847
  C     -109.202    -298.523      59.794
  N     -105.191    -299.433      62.840
  C     -105.952    -300.253      62.085
  N     -107.010    -299.940      61.299
  C     -107.251    -298.619      61.342
  C     -106.581    -297.663      62.088
  C     -105.503    -298.109      62.871
  N     -104.720    -297.273      63.629
  N     -107.141    -296.409      61.886
  C     -108.127    -296.605      61.036
  N     -108.208    -297.924      60.663
  O     -116.156    -297.204      59.086
  O     -115.123    -296.213      61.203
  H     -109.295    -301.098      60.028
  H     -116.927    -297.126      59.679
  H     -105.679    -301.313      62.112
  H     -108.796    -295.848      60.674
  H     -108.672    -299.065      58.996
  H     -110.492    -298.957      61.491
  H     -112.276    -299.756      60.055
  H     -111.549    -298.064      57.923
  H     -112.151    -297.061      60.732
  H     -103.884    -297.648      64.051
  H     -104.823    -296.263      63.512
  H     -112.242    -296.080      59.254
  P     -111.943    -301.652      58.335
  C     -110.189    -303.423      59.062
  O     -110.972    -302.880      58.015
  O     -112.706    -301.386      56.954
  O     -112.908    -301.860      59.469
  H     -113.568    -301.842      56.959
  H     -110.066    -304.497      58.904
  H     -110.653    -303.264      60.043
  H     -109.204    -302.941      59.057
  H     -113.891    -293.328      58.657
  H     -113.007    -294.384      59.732
  H     -114.553    -293.734      60.222

 3  4  5  6  7  8  9  10  11  12  22  25  29  30  31  32 0
 6-311+G(2d,p)
 ****
 33  36  37 0
 6-311+G(2d,p)
 ****
 1  2  13  14  15  16  17  18  19  20  21  23  24  26 0
 3-21G
 ****
 27  28  34  35  38  39  40  41  42  43  44  45  46  47  48 0
 3-21G
 ****


