%nproc=1
%NoSave
%Mem=1900MB
#P OB98/GEN NMR

erre ene a

0 1
  C      112.806      36.664      42.776
  O      113.875      37.158      43.557
  H      113.149      36.553      41.744
  H      111.964      37.362      42.789
  H      112.483      35.686      43.146
  P      113.605      37.486      45.102
  C      111.977      39.052      46.367
  O      112.619      38.749      45.130
  C      110.769      39.959      46.136
  O      109.700      39.221      45.511
  C      110.178      40.545      47.415
  O      110.994      41.590      47.910
  C      108.804      40.967      46.918
  O      108.879      42.199      46.185
  C      108.450      39.792      45.975
  N      107.617      38.771      46.605
  C      106.240      39.032      46.630
  O      105.799      40.077      46.155
  N      105.411      38.103      47.211
  C      105.900      36.999      47.681
  N      105.023      36.116      48.241
  C      107.339      36.670      47.643
  C      108.133      37.594      47.105
  O      114.817      37.628      45.970
  O      112.666      36.283      45.594
  H      107.963      42.409      45.915
  H      113.201      35.571      45.990
  H      107.701      35.731      48.037
  H      109.204      37.435      47.034
  H      107.924      40.161      45.083
  H      108.099      41.122      47.734
  H      110.047      39.759      48.169
  H      111.071      40.753      45.441
  H      104.044      36.379      48.227
  H      112.714      39.559      46.996
  H      105.265      35.169      48.488
  H      111.665      38.132      46.874
  P      110.736      42.246      49.347
  C      109.238      44.129      50.260
  O      109.630      43.389      49.114
  O      111.962      42.697      50.069
  O      109.910      41.124      50.134
  H      110.516      40.402      50.443
  H      108.503      44.855      49.982
  H      110.091      44.626      50.673
  H      108.824      43.464      50.989

 6  7  8  9  10  11  12  13  14  15  16  26  30  31  32  33  35 0
 6-311+G(2d,p)
 ****
 37  38 0
 6-311+G(2d,p)
 ****
 1  2  3  4  5  17  18  19  20  21  22  23  24  25 0
 3-21G
 ****
 27  28  29  34  36  39  40  41  42  43  44  45  46 0
 3-21G
 ****


