%nproc=1
%NoSave
%Mem=1900MB
#P OB98/GEN NMR

erre ene a

0 1
  C      331.066    -267.911    -316.240
  O      331.405    -266.683    -315.606
  P      330.256    -265.588    -315.412
  C      331.861    -263.635    -315.993
  O      330.985    -264.206    -315.036
  C      332.353    -262.259    -315.538
  O      331.192    -261.398    -315.314
  C      333.168    -262.258    -314.243
  O      334.137    -261.216    -314.345
  C      332.147    -261.889    -313.193
  O      332.746    -261.383    -311.998
  C      331.305    -260.879    -313.971
  N      328.601    -258.506    -310.341
  C      329.907    -258.437    -310.666
  N      330.556    -259.098    -311.654
  C      329.699    -259.899    -312.329
  C      328.354    -260.090    -312.078
  C      327.796    -259.342    -311.030
  N      326.462    -259.394    -310.694
  N      327.825    -261.009    -312.959
  C      328.838    -261.372    -313.728
  N      329.993    -260.705    -313.400
  O      329.567    -266.035    -314.040
  O      329.258    -265.499    -316.520
  H      333.401    -262.036    -311.682
  H      328.658    -266.362    -314.210
  H      330.514    -257.757    -310.071
  H      328.786    -262.096    -314.528
  H      331.788    -259.894    -314.020
  H      331.558    -262.771    -312.913
  H      333.667    -263.219    -314.030
  H      332.931    -261.809    -316.356
  H      331.320    -263.518    -316.938
  H      326.107    -258.730    -310.029
  H      325.819    -259.870    -311.319
  H      332.715    -264.297    -316.153
  P      335.659    -261.652    -314.610
  C      336.558    -260.694    -312.379
  O      336.587    -260.640    -313.798
  O      335.904    -261.233    -316.149
  O      335.923    -263.105    -314.387
  H      336.575    -261.809    -316.538
  H      337.553    -260.439    -311.992
  H      336.276    -261.682    -312.011
  H      335.841    -259.957    -312.007
  H      331.934    -268.535    -316.296
  H      330.704    -267.714    -317.227
  H      330.306    -268.407    -315.673

 3  4  5  6  7  8  9  10  11  12  22  25  29  30  31  32 0
 6-311+G(2d,p)
 ****
 33  36  37 0
 6-311+G(2d,p)
 ****
 1  2  13  14  15  16  17  18  19  20  21  23  24  26 0
 3-21G
 ****
 27  28  34  35  38  39  40  41  42  43  44  45  46  47  48 0
 3-21G
 ****


