%nproc=1
%NoSave
%Mem=1900MB
#P OB98/GEN NMR

erre ene a

0 1
  C     -124.169     513.341     298.910
  O     -123.340     514.477     298.768
  H     -123.987     512.856     299.874
  H     -125.213     513.661     298.866
  H     -123.979     512.635     298.097
  P     -121.760     514.227     298.915
  C     -121.003     515.747     296.957
  O     -121.131     514.422     297.451
  C     -119.622     515.947     296.341
  O     -119.459     515.082     295.196
  C     -119.352     517.353     295.818
  O     -119.021     518.254     296.868
  C     -118.166     517.090     294.903
  O     -116.958     517.010     295.688
  C     -118.499     515.716     294.311
  N     -118.353     513.751     289.570
  C     -117.649     513.465     290.685
  N     -117.732     514.032     291.906
  C     -118.679     514.989     291.922
  C     -119.473     515.390     290.864
  C     -119.282     514.732     289.640
  N     -119.997     515.042     288.500
  N     -120.337     516.387     291.259
  C     -120.069     516.590     292.534
  N     -119.065     515.769     292.978
  O     -121.652     512.647     299.156
  O     -121.092     514.993     300.008
  H     -117.001     517.738     296.336
  H     -120.919     512.472     299.773
  H     -116.918     512.662     290.583
  H     -120.573     517.306     293.165
  H     -117.616     515.065     294.280
  H     -118.018     517.875     294.159
  H     -120.195     517.723     295.223
  H     -118.872     515.658     297.090
  H     -121.133     516.456     297.781
  H     -119.957     514.414     287.719
  H     -120.694     515.777     288.566
  H     -121.783     515.922     296.209
  P     -120.171     519.253     297.376
  C     -119.836     518.578     299.861
  O     -120.717     518.620     298.742
  O     -121.367     518.985     296.343
  O     -119.790     520.695     297.422
  H     -121.941     519.773     296.289
  H     -120.338     518.131     300.694
  H     -119.537     519.573     300.117
  H     -118.972     517.998     299.613

 6  7  8  9  10  11  12  13  14  15  25  28  32  33  34  35 0
 6-311+G(2d,p)
 ****
 36  39  40 0
 6-311+G(2d,p)
 ****
 1  2  3  4  5  16  17  18  19  20  21  22  23  24 0
 3-21G
 ****
 26  27  29  30  31  37  38  41  42  43  44  45  46  47  48 0
 3-21G
 ****


