%nproc=1
%NoSave
%Mem=1900MB
#P OB98/GEN NMR

erre ene a

0 1
  C      -96.399      66.975      39.698
  O      -95.269      67.108      40.530
  H      -96.512      67.889      39.108
  H      -97.296      66.845      40.306
  H      -96.288      66.130      39.013
  P      -94.707      65.815      41.295
  C      -94.559      65.062      43.759
  O      -95.042      66.040      42.849
  C      -94.235      65.712      45.105
  O      -93.173      66.691      44.895
  C      -95.434      66.452      45.736
  O      -95.346      66.331      47.162
  C      -95.157      67.883      45.318
  O      -95.846      68.807      46.123
  C      -93.638      67.938      45.443
  N      -93.085      69.096      44.746
  C      -92.459      70.060      45.527
  O      -92.361      69.988      46.752
  N      -92.003      71.167      44.863
  C      -92.207      71.444      43.544
  O      -91.846      72.487      43.017
  C      -92.923      70.412      42.776
  C      -93.318      69.299      43.400
  O      -93.288      65.451      41.011
  O      -95.728      64.648      40.898
  H      -95.569      69.715      45.899
  H      -95.313      63.775      41.028
  H      -91.536      71.871      45.412
  H      -93.117      70.609      41.729
  H      -93.864      68.526      42.872
  H      -93.332      67.972      46.497
  H      -95.475      68.040      44.282
  H      -96.399      66.080      45.389
  H      -93.838      64.951      45.787
  H      -93.655      64.614      43.335
  H      -95.316      64.281      43.890
  P      -96.487      65.595      48.018
  C      -97.903      66.073      50.109
  O      -97.222      66.641      48.994
  O      -96.029      64.349      48.704
  O      -97.619      65.239      46.943
  H      -97.914      64.317      47.081
  H      -98.353      66.853      50.687
  H      -97.206      65.535      50.717
  H      -98.662      65.404      49.760

 6  7  8  9  10  11  12  13  14  15  16  26  31  32  33  34  35 0
 6-311+G(2d,p)
 ****
 36  37 0
 6-311+G(2d,p)
 ****
 1  2  3  4  5  17  18  19  20  21  22  23  24  25 0
 3-21G
 ****
 27  28  29  30  38  39  40  41  42  43  44  45 0
 3-21G
 ****


