%nproc=1
%NoSave
%Mem=1900MB
#P OB98/GEN NMR

erre ene a

0 1
  C      534.750    -365.303     255.322
  O      533.636    -364.623     254.774
  H      535.436    -365.555     254.512
  H      534.421    -366.226     255.811
  H      535.267    -364.665     256.045
  P      532.508    -364.148     255.813
  C      532.827    -361.646     255.149
  O      532.848    -362.626     256.180
  C      533.540    -360.368     255.611
  O      534.934    -360.698     255.902
  C      533.564    -359.251     254.548
  O      533.608    -357.991     255.241
  C      534.895    -359.502     253.861
  O      535.274    -358.400     253.072
  C      535.751    -359.831     255.086
  N      540.741    -359.113     254.178
  C      539.757    -358.251     254.549
  N      538.456    -358.522     254.782
  C      538.203    -359.831     254.621
  C      539.094    -360.830     254.259
  C      540.424    -360.417     254.034
  N      541.425    -361.287     253.650
  N      538.467    -362.060     254.200
  C      537.208    -361.808     254.514
  N      536.998    -360.479     254.771
  O      532.877    -364.954     257.148
  O      531.096    -364.393     255.387
  H      534.527    -358.107     252.498
  H      532.351    -365.773     257.198
  H      540.063    -357.221     254.667
  H      536.414    -362.547     254.565
  H      535.988    -358.928     255.673
  H      534.831    -360.363     253.192
  H      532.697    -359.268     253.885
  H      533.090    -360.028     256.551
  H      531.784    -361.418     254.909
  H      533.325    -362.040     254.255
  H      542.347    -360.917     253.488
  H      541.205    -362.264     253.514
  P      532.233    -357.343     255.775
  C      532.752    -357.630     258.325
  O      531.902    -357.942     257.225
  O      531.141    -358.082     254.852
  O      532.124    -355.852     255.639
  H      530.359    -357.502     254.753
  H      532.384    -358.110     259.207
  H      532.767    -356.571     258.475
  H      533.744    -357.975     258.118

 6  7  8  9  10  11  12  13  14  15  25  28  32  33  34  35 0
 6-311+G(2d,p)
 ****
 36  37  40 0
 6-311+G(2d,p)
 ****
 1  2  3  4  5  16  17  18  19  20  21  22  23  24 0
 3-21G
 ****
 26  27  29  30  31  38  39 41  42  43  44  45  46  47  48 0
 3-21G
 ****


