%nproc=1
%NoSave
%Mem=1900MB
#P OB98/GEN NMR

erre ene a

0 1
  C      220.380    -114.040    -175.607
  O      221.128    -114.957    -174.833
  H      220.674    -114.148    -176.655
  H      220.594    -113.016    -175.290
  H      219.309    -114.243    -175.522
  P      220.819    -115.077    -173.265
  C      220.329    -117.589    -173.494
  O      219.827    -116.327    -173.083
  C      219.365    -118.706    -173.096
  O      218.025    -118.337    -173.513
  C      219.699    -120.062    -173.727
  O      219.426    -121.087    -172.771
  C      218.716    -120.165    -174.878
  O      218.427    -121.518    -175.225
  C      217.510    -119.407    -174.329
  N      214.150    -120.639    -177.896
  C      214.739    -121.417    -176.918
  N      214.404    -122.724    -176.898
  N      215.585    -120.953    -176.036
  C      215.818    -119.623    -176.163
  C      215.301    -118.748    -177.087
  C      214.375    -119.277    -178.068
  O      213.833    -118.640    -178.965
  N      215.801    -117.482    -176.908
  C      216.621    -117.595    -175.878
  N      216.675    -118.878    -175.398
  O      220.354    -113.818    -172.604
  O      222.193    -115.604    -172.638
  H      217.928    -121.907    -174.475
  H      222.692    -114.870    -172.234
  H      213.512    -121.049    -178.556
  H      217.202    -116.788    -175.450
  H      216.865    -120.040    -173.707
  H      219.128    -119.662    -175.763
  H      213.747    -123.148    -177.535
  H      220.737    -120.132    -174.063
  H      214.805    -123.310    -176.174
  H      219.349    -118.777    -172.001
  H      221.298    -117.749    -173.008
  H      220.473    -117.588    -174.580
  P      220.649    -121.723    -171.953
  C      219.978    -120.546    -169.762
  O      221.002    -120.744    -170.732
  O      221.817    -122.162    -172.774
  O      219.967    -122.972    -171.208
  H      220.636    -123.671    -171.089
  H      220.330    -119.879    -169.003
  H      219.720    -121.485    -169.319
  H      219.115    -120.125    -170.235

 6  7  8  9  10  11  12  13  14  15  26  29  33  34 0
 6-311+G(2d,p)
 ****
 36  38  39  40  41 0
 6-311+G(2d,p)
 ****
 1  2  3  4  5  16  17  18  19  20  21  22  23  24  25 0
 3-21G
 ****
 27  28  30  31  32  35  37  42  43  44  45  46  47 0
 3-21G
 ****
 48  49 0
 3-21G
 ****


