%nproc=1
%NoSave
%Mem=1900MB
#P OB98/GEN NMR

erre ene a

0 1
  C      174.019      45.550      13.893
  O      174.467      44.216      14.020
  H      174.864      46.219      14.071
  H      173.242      45.763      14.632
  H      173.637      45.732      12.884
  P      173.407      43.028      13.806
  C      173.022      41.573      15.918
  O      172.762      42.810      15.265
  C      174.221      41.709      16.851
  O      174.009      42.755      17.829
  C      174.531      40.468      17.682
  O      175.121      39.415      16.942
  C      175.490      41.068      18.698
  O      176.776      41.273      18.084
  C      174.793      42.410      19.007
  N      173.937      42.343      20.191
  C      174.581      42.367      21.437
  O      175.806      42.434      21.505
  N      173.815      42.282      22.577
  C      172.528      42.154      22.483
  N      171.821      42.066      23.651
  C      171.811      42.103      21.195
  C      172.567      42.203      20.103
  O      173.932      41.794      13.141
  O      172.193      43.712      13.016
  H      177.347      41.698      18.752
  H      171.512      43.014      12.851
  H      170.737      41.969      21.172
  H      172.112      42.171      19.118
  H      175.533      43.211      19.150
  H      175.648      40.430      19.570
  H      173.634      40.120      18.215
  H      175.082      42.007      16.238
  H      172.340      42.103      24.518
  H      173.205      40.813      15.151
  H      170.826      41.893      23.671
  H      172.156      41.277      16.512
  P      174.753      37.913      17.390
  C      176.866      36.498      18.012
  O      175.903      37.463      18.415
  O      175.049      37.060      16.071
  O      173.357      37.720      17.902
  H      174.222      36.881      15.579
  H      177.550      36.320      18.815
  H      177.402      36.863      17.161
  H      176.370      35.585      17.757

 6  7  8  9  10  11  12  13  14  15  16  26  30  31  32  33  35 0
 6-311+G(2d,p)
 ****
 37  38 0
 6-311+G(2d,p)
 ****
 1  2  3  4  5  17  18  19  20  21  22  23  24  25 0
 3-21G
 ****
 27  28  29  34  36  39  40  41  42  43  44  45  46 0
 3-21G
 ****


