%nproc=1
%NoSave
%Mem=1900MB
#P OB98/GEN NMR

erre ene a

0 1
  C      -37.831     259.292     422.202
  O      -38.376     260.075     421.165
  P      -39.579     259.605     420.231
  C      -37.994     258.897     418.273
  O      -39.093     259.686     418.699
  C      -38.183     258.430     416.821
  O      -37.105     257.521     416.483
  C      -39.501     257.651     416.650
  O      -40.206     257.957     415.454
  C      -39.068     256.206     416.851
  O      -39.975     255.254     416.312
  C      -37.666     256.207     416.237
  N      -36.611     251.253     416.621
  C      -37.515     251.888     415.792
  N      -38.361     251.087     415.111
  N      -37.595     253.189     415.667
  C      -36.759     253.862     416.494
  C      -35.821     253.342     417.354
  C      -35.721     251.901     417.456
  O      -35.009     251.298     418.263
  N      -35.196     254.326     418.084
  C      -35.783     255.438     417.686
  N      -36.757     255.202     416.743
  O      -40.934     260.126     420.567
  O      -39.587     258.007     420.491
  H      -39.511     254.403     416.262
  H      -40.522     257.715     420.443
  H      -36.656     250.246     416.737
  H      -35.555     256.431     418.070
  H      -37.706     256.065     415.152
  H      -39.016     256.017     417.931
  H      -38.426     250.093     415.299
  H      -40.214     257.921     417.441
  H      -39.186     251.522     414.700
  H      -38.118     259.292     416.150
  H      -37.951     258.038     418.944
  H      -37.053     259.458     418.381
  P      -41.737     258.372     415.276
  C      -43.119     256.213     415.296
  O      -42.499     257.202     414.497
  O      -41.725     259.563     414.203
  O      -42.413     258.823     416.533
  H      -42.373     260.244     414.455
  H      -43.357     255.350     414.670
  H      -44.049     256.612     415.712
  H      -42.456     255.892     416.106
  H      -37.038     259.831     422.677
  H      -37.449     258.379     421.796
  H      -38.593     259.072     422.921

 3  4  5  6  7  8  9  10  11  12  23  26  30  31 0
 6-311+G(2d,p)
 ****
 33  35  36  37  38 0
 6-311+G(2d,p)
 ****
 1  2  13  14  15  16  17  18  19  20  21  22  24  25 0
 3-21G
 ****
 27  28  29  32  34  39  40  41  42  43  44  45  46  47  48  49 0
 3-21G
 ****


