%nproc=1
%NoSave
%Mem=1900MB
#P OB98/GEN NMR

erre ene a

0 1
  C      -41.379      67.682     243.218
  O      -41.491      67.250     244.562
  H      -40.608      68.456     243.161
  H      -42.322      68.109     242.866
  H      -41.088      66.848     242.575
  P      -42.666      66.225     244.932
  C      -43.134      64.661     246.938
  O      -42.188      65.489     246.271
  C      -42.566      64.186     248.272
  O      -41.637      63.104     248.062
  C      -41.787      65.266     249.009
  O      -42.661      66.198     249.612
  C      -40.968      64.422     249.967
  O      -41.743      64.021     251.103
  C      -40.615      63.205     249.081
  N      -39.288      63.306     248.485
  C      -38.208      63.219     249.371
  O      -38.401      63.060     250.574
  N      -36.938      63.337     248.865
  C      -36.758      63.509     247.593
  N      -35.475      63.619     247.158
  C      -37.867      63.592     246.625
  C      -39.093      63.488     247.135
  O      -43.121      65.299     243.846
  O      -43.847      67.178     245.444
  H      -41.204      63.354     251.571
  H      -44.417      67.443     244.700
  H      -37.671      63.730     245.572
  H      -39.965      63.536     246.491
  H      -40.659      62.278     249.666
  H      -40.098      64.964     250.334
  H      -41.097      65.768     248.324
  H      -43.392      63.806     248.884
  H      -34.744      63.566     247.860
  H      -43.332      63.805     246.285
  H      -35.212      63.666     246.187
  H      -44.074      65.200     247.098
  P      -42.243      67.740     249.747
  C      -43.536      69.971     249.711
  O      -43.627      68.552     249.811
  O      -41.261      68.225     248.735
  O      -41.704      67.837     251.253
  H      -40.812      67.421     251.344
  H      -44.516      70.396     249.766
  H      -43.085      70.235     248.777
  H      -42.938      70.348     250.515

 6  7  8  9  10  11  12  13  14  15  16  26  30  31  32  33  35 0
 6-311+G(2d,p)
 ****
 37  38 0
 6-311+G(2d,p)
 ****
 1  2  3  4  5  17  18  19  20  21  22  23  24  25 0
 3-21G
 ****
 27  28  29  34  36  39  40  41  42  43  44  45  46 0
 3-21G
 ****


