%nproc=1
%NoSave
%Mem=1900MB
#P OB98/GEN NMR

erre ene a

0 1
  C      289.234    -256.372     -94.096
  O      290.366    -255.503     -93.998
  P      290.906    -255.184     -92.516
  C      291.546    -256.652     -90.461
  O      291.383    -256.576     -91.872
  C      292.104    -258.013     -90.054
  O      291.322    -259.084     -90.619
  C      293.530    -258.272     -90.524
  O      294.484    -257.635     -89.687
  C      293.617    -259.783     -90.387
  O      293.918    -260.136     -89.025
  C      292.193    -260.235     -90.757
  N      292.555    -264.315     -93.743
  C      292.743    -264.197     -92.379
  N      293.046    -265.333     -91.714
  N      292.644    -263.069     -91.727
  C      292.309    -262.020     -92.520
  C      292.096    -262.008     -93.878
  C      292.237    -263.260     -94.593
  O      292.114    -263.416     -95.804
  N      291.761    -260.755     -94.327
  C      291.743    -260.014     -93.234
  N      292.082    -260.730     -92.114
  O      289.561    -254.850     -91.711
  O      291.889    -254.068     -92.455
  H      293.189    -259.789     -88.471
  H      289.760    -254.255     -90.964
  H      292.648    -265.207     -94.197
  H      291.491    -258.962     -93.201
  H      291.822    -261.008     -90.074
  H      294.406    -260.223     -91.010
  H      293.067    -266.246     -92.142
  H      293.652    -257.986     -91.580
  H      293.152    -265.270     -90.709
  H      292.054    -258.088     -88.959
  H      290.584    -256.493     -89.969
  H      292.207    -255.842     -90.135
  P      294.955    -256.156     -90.105
  C      293.422    -254.225     -90.908
  O      293.658    -255.230     -89.941
  O      295.154    -256.273     -91.691
  O      296.194    -255.688     -89.418
  H      295.829    -255.640     -91.992
  H      293.605    -254.594     -91.918
  H      294.069    -253.364     -90.706
  H      292.378    -253.904     -90.832
  H      288.974    -256.504     -95.125
  H      288.407    -255.941     -93.572
  H      289.474    -257.321     -93.664

 3  4  5  6  7  8  9  10  11  12  23  26  30  31  33  0
 6-311+G(2d,p)
 ****
 35  36  37  38 0
 6-311+G(2d,p)
 ****
 1  2  13  14  15  16  17  18  19  20  21  22  24  25  27  28  29 0
 3-21G
 ****
 32  34  39  40  41  42  43  44  45  46  47  48  49 0
 3-21G
 ****


