%nproc=1
%NoSave
%Mem=1900MB
#P OB98/GEN NMR

erre ene a

0 1
  C      -28.289    -234.690    -333.195
  O      -29.423    -234.830    -334.028
  H      -27.803    -233.738    -333.423
  H      -27.583    -235.502    -333.390
  H      -28.585    -234.694    -332.142
  P      -30.386    -236.082    -333.733
  C      -32.411    -234.925    -334.942
  O      -31.524    -236.027    -334.862
  C      -33.058    -234.852    -336.327
  O      -32.088    -234.323    -337.267
  C      -33.528    -236.209    -336.857
  O      -34.725    -236.011    -337.609
  C      -32.407    -236.627    -337.795
  O      -32.846    -237.566    -338.773
  C      -31.963    -235.264    -338.353
  N      -30.600    -235.295    -338.882
  C      -30.468    -235.356    -340.273
  O      -31.470    -235.392    -340.992
  N      -29.212    -235.416    -340.818
  C      -28.176    -235.478    -340.042
  N      -26.959    -235.562    -340.643
  C      -28.270    -235.461    -338.567
  C      -29.497    -235.360    -338.062
  O      -31.144    -235.605    -332.406
  O      -29.678    -237.389    -333.604
  H      -33.414    -237.098    -339.422
  H      -31.444    -234.681    -332.442
  H      -27.376    -235.525    -337.963
  H      -29.658    -235.333    -336.991
  H      -32.637    -234.937    -339.156
  H      -31.592    -237.089    -337.228
  H      -33.706    -236.937    -336.062
  H      -33.888    -234.137    -336.286
  H      -26.940    -235.591    -341.655
  H      -31.877    -233.990    -334.745
  H      -26.091    -235.669    -340.138
  H      -33.176    -235.050    -334.169
  P      -35.937    -237.043    -337.451
  C      -37.311    -236.152    -335.447
  O      -37.216    -236.276    -336.862
  O      -35.607    -238.334    -336.783
  O      -36.375    -237.307    -338.978
  H      -36.573    -238.258    -339.068
  H      -38.206    -235.623    -335.195
  H      -36.463    -235.614    -335.078
  H      -37.335    -237.126    -335.004

 6  7  8  9  10  11  12  13  14  15  16  26  30  31  32  33  35 0
 6-311+G(2d,p)
 ****
 37  38 0
 6-311+G(2d,p)
 ****
 1  2  3  4  5  17  18  19  20  21  22  23  24  25 0
 3-21G
 ****
 27  28  29  34  36  39  40  41  42  43  44  45  46 0
 3-21G
 ****


