%nproc=1
%NoSave
%Mem=1900MB
#P OB98/GEN NMR

erre ene a

0 1
  C     -470.548     800.308    -268.870
  O     -470.961     801.618    -269.195
  P     -472.367     801.781    -269.947
  C     -473.627     802.903    -267.950
  O     -473.117     803.035    -269.286
  C     -472.861     803.830    -267.014
  O     -471.522     803.346    -266.819
  C     -472.703     805.266    -267.521
  O     -473.919     805.994    -267.387
  C     -471.569     805.755    -266.635
  O     -472.071     806.101    -265.325
  C     -470.669     804.504    -266.538
  N     -465.789     805.837    -267.297
  C     -466.614     805.985    -266.239
  N     -467.901     805.623    -266.126
  C     -468.340     805.050    -267.254
  C     -467.626     804.846    -268.416
  C     -466.285     805.263    -268.424
  N     -465.444     805.123    -269.504
  N     -468.412     804.243    -269.377
  C     -469.572     804.070    -268.794
  N     -469.586     804.524    -267.494
  O     -473.211     800.526    -269.419
  O     -472.286     801.813    -271.445
  H     -472.563     806.940    -265.416
  H     -473.805     800.186    -270.120
  H     -466.162     806.460    -265.356
  H     -470.450     803.621    -269.253
  H     -470.242     804.370    -265.551
  H     -471.055     806.628    -267.036
  H     -472.391     805.271    -268.573
  H     -473.388     803.830    -266.044
  H     -473.488     801.864    -267.620
  H     -464.549     805.576    -269.483
  H     -465.853     804.817    -270.387
  H     -474.697     803.133    -267.959
  P     -474.070     807.348    -268.228
  C     -473.968     806.014    -270.414
  O     -474.742     806.886    -269.613
  O     -472.551     807.639    -268.649
  O     -474.763     808.459    -267.514
  H     -472.122     806.857    -269.021
  H     -474.540     805.735    -271.281
  H     -473.705     805.109    -269.843
  H     -473.053     806.519    -270.751
  H     -469.600     800.345    -268.375
  H     -470.460     799.729    -269.766
  H     -471.271     799.856    -268.223

 3  4  5  6  7  8  9  10  11  12  22  25  29  30  31  32 0
 6-311+G(2d,p)
 ****
 33  36  37 0
 6-311+G(2d,p)
 ****
 1  2  13  14  15  16  17  18  19  20  21  23  24  26 0
 3-21G
 ****
 27  28  34  35  38  39  40  41  42  43  44  45  46  47  48 0
 3-21G
 ****


