%nproc=1
%NoSave
%Mem=1900MB
#P OB98/GEN NMR

erre ene a

0 1
  C     -409.405    -769.284    -561.634
  O     -410.424    -770.040    -560.998
  P     -411.504    -770.763    -561.951
  C     -411.148    -773.224    -561.176
  O     -410.962    -772.253    -562.187
  C     -410.404    -774.514    -561.557
  O     -408.980    -774.284    -561.596
  C     -410.631    -775.685    -560.604
  O     -411.854    -776.333    -560.882
  C     -409.398    -776.539    -560.865
  O     -409.575    -777.339    -562.047
  C     -408.312    -775.471    -561.088
  N     -404.939    -777.212    -557.732
  C     -405.632    -777.876    -558.731
  N     -405.350    -779.186    -558.877
  N     -406.514    -777.313    -559.514
  C     -406.712    -775.998    -559.229
  C     -406.097    -775.232    -558.263
  C     -405.085    -775.847    -557.446
  O     -404.377    -775.278    -556.619
  N     -406.568    -773.941    -558.277
  C     -407.436    -773.922    -559.273
  N     -407.545    -775.142    -559.896
  O     -411.284    -770.049    -563.361
  O     -412.920    -770.690    -561.474
  H     -409.908    -776.781    -562.767
  H     -411.959    -769.337    -563.493
  H     -404.261    -777.687    -557.179
  H     -408.000    -773.054    -559.591
  H     -407.585    -775.778    -561.850
  H     -409.191    -777.227    -560.049
  H     -404.698    -779.697    -558.304
  H     -410.607    -775.324    -559.564
  H     -405.838    -779.699    -559.602
  H     -410.715    -774.792    -562.579
  H     -412.220    -773.450    -561.080
  H     -410.772    -772.843    -560.214
  P     -413.036    -776.195    -559.802
  C     -414.645    -774.802    -561.306
  O     -413.829    -774.841    -560.144
  O     -412.256    -775.847    -558.443
  O     -413.884    -777.412    -559.657
  H     -412.712    -776.276    -557.691
  H     -415.459    -774.101    -561.141
  H     -415.048    -775.786    -561.539
  H     -414.039    -774.440    -562.155
  H     -408.760    -768.860    -560.893
  H     -409.850    -768.500    -562.210
  H     -408.837    -769.922    -562.279

 3  4  5  6  7  8  9  10  11  12  23  26  30  31 0
 6-311+G(2d,p)
 ****
 33  35  36  37  38 0
 6-311+G(2d,p)
 ****
 1  2  13  14  15  16  17  18  19  20  21  22  24  25 0
 3-21G
 ****
 27  28  29  32  34  39  40  41  42  43  44  45  46  47  48  49 0
 3-21G
 ****


