%nproc=1
%NoSave
%Mem=1900MB
#P OB98/GEN NMR

erre ene a

0 1
  C      105.712     315.823    -148.861
  O      107.002     316.368    -149.065
  H      105.206     315.750    -149.826
  H      105.132     316.479    -148.206
  H      105.785     314.824    -148.421
  P      107.983     316.395    -147.794
  C      108.768     318.649    -148.889
  O      109.096     317.499    -148.132
  C      109.958     319.609    -148.959
  O      110.263     320.067    -147.618
  C      111.225     318.973    -149.535
  O      111.922     319.964    -150.293
  C      112.036     318.626    -148.297
  O      113.427     318.514    -148.580
  C      111.651     319.776    -147.354
  N      111.874     319.443    -145.949
  C      112.987     320.024    -145.335
  O      113.733     320.766    -145.976
  N      113.256     319.722    -144.024
  C      112.516     318.863    -143.398
  N      112.850     318.586    -142.109
  C      111.358     318.190    -144.018
  C      111.091     318.532    -145.279
  O      108.763     315.007    -147.954
  O      107.291     316.567    -146.484
  H      113.721     319.333    -149.035
  H      109.054     314.829    -148.864
  H      110.777     317.472    -143.459
  H      110.255     318.094    -145.810
  H      112.231     320.678    -147.590
  H      111.698     317.667    -147.884
  H      111.016     318.106    -150.163
  H      109.661     320.490    -149.537
  H      113.665     319.052    -141.730
  H      107.911     319.166    -148.444
  H      112.380     317.894    -141.545
  H      108.482     318.323    -149.895
  P      111.415     320.333    -151.764
  C      113.473     320.831    -153.251
  O      112.438     321.369    -152.435
  O      109.975     320.696    -151.881
  O      111.713     318.982    -152.586
  H      110.958     318.826    -153.186
  H      114.078     321.628    -153.632
  H      113.040     320.291    -154.067
  H      114.080     320.170    -152.668

 6  7  8  9  10  11  12  13  14  15  16  26  30  31  32  33  35 0
 6-311+G(2d,p)
 ****
 37  38 0
 6-311+G(2d,p)
 ****
 1  2  3  4  5  17  18  19  20  21  22  23  24  25 0
 3-21G
 ****
 27  28  29  34  36  39  40  41  42  43  44  45  46 0
 3-21G
 ****


