%nproc=1
%NoSave
%Mem=1900MB
#P OB98/GEN NMR

erre ene a

0 1
  C     -838.444     797.402     154.842
  O     -838.597     796.606     155.996
  H     -837.549     797.074     154.313
  H     -838.319     798.456     155.126
  H     -839.312     797.298     154.188
  P     -839.875     796.927     156.919
  C     -841.184     794.675     156.612
  O     -840.404     795.508     157.458
  C     -841.323     793.261     157.193
  O     -840.074     792.543     156.979
  C     -841.575     793.252     158.730
  O     -842.329     792.076     159.029
  C     -840.168     793.122     159.257
  O     -840.188     792.774     160.630
  C     -839.595     792.113     158.286
  N     -835.557     789.531     160.056
  C     -836.875     789.317     160.177
  N     -837.890     790.037     159.666
  C     -837.436     791.073     158.942
  C     -836.118     791.419     158.712
  C     -835.132     790.600     159.303
  N     -833.789     790.826     159.203
  N     -836.029     792.565     157.929
  C     -837.291     792.884     157.681
  N     -838.159     792.026     158.271
  O     -841.005     797.351     155.858
  O     -839.673     797.963     157.968
  H     -839.290     792.662     160.986
  H     -841.026     798.316     155.773
  H     -837.158     788.442     160.764
  H     -837.605     793.745     157.065
  H     -840.003     791.106     158.459
  H     -839.642     794.084     159.198
  H     -842.126     794.151     159.077
  H     -842.115     792.736     156.642
  H     -840.683     794.608     155.621
  H     -842.177     795.115     156.476
  H     -833.141     790.203     159.674
  H     -833.463     791.620     158.670
  P     -843.548     792.176     160.093
  C     -845.591     791.943     158.460
  O     -844.807     791.380     159.517
  O     -844.029     793.693     159.907
  O     -843.202     791.890     161.503
  H     -844.408     794.014     160.739
  H     -846.385     791.272     158.208
  H     -844.972     792.101     157.602
  H     -846.002     792.878     158.780

 6  7  8  9  10  11  12  13  14  15  25  28  32  33  34  35 0
 6-311+G(2d,p)
 ****
 36  37  40 0
 6-311+G(2d,p)
 ****
 1  2  3  4  5  16  17  18  19  20  21  22  23  24 0
 3-21G
 ****
 26  27  29  30  31  38  39 41  42  43  44  45  46  47  48 0
 3-21G
 ****


