%nproc=1
%NoSave
%Mem=1900MB
#P OB98/GEN NMR

erre ene a

0 1
  C      -57.983     -71.871     -38.882
  O      -58.338     -70.645     -38.275
  H      -57.228     -72.365     -38.263
  H      -57.559     -71.688     -39.874
  H      -58.856     -72.524     -38.965
  P      -59.555     -69.839     -38.929
  C      -58.270     -67.571     -39.253
  O      -58.922     -68.685     -39.852
  C      -57.437     -66.833     -40.298
  O      -56.313     -67.628     -40.726
  C      -58.185     -66.538     -41.587
  O      -59.162     -65.533     -41.434
  C      -57.027     -66.142     -42.492
  O      -56.611     -64.792     -42.241
  C      -55.935     -67.145     -42.044
  N      -55.758     -68.237     -42.990
  C      -55.247     -67.880     -44.246
  O      -54.968     -66.707     -44.490
  N      -55.096     -68.858     -45.196
  C      -55.401     -70.087     -44.915
  N      -55.237     -71.006     -45.903
  C      -55.918     -70.509     -43.598
  C      -56.074     -69.542     -42.696
  O      -60.139     -69.017     -37.688
  O      -60.565     -70.677     -39.645
  H      -55.878     -64.612     -42.860
  H      -59.471     -68.488     -37.222
  H      -56.151     -71.548     -43.405
  H      -56.448     -69.767     -41.704
  H      -54.969     -66.635     -41.929
  H      -57.294     -66.200     -43.549
  H      -58.626     -67.460     -41.988
  H      -57.051     -65.913     -39.837
  H      -54.901     -70.675     -46.800
  H      -57.644     -67.891     -38.415
  H      -55.472     -71.983     -45.810
  H      -59.047     -66.910     -38.854
  P      -60.140     -65.155     -42.648
  C      -59.277     -62.769     -43.079
  O      -59.336     -64.105     -43.562
  O      -61.506     -64.711     -42.248
  O      -60.126     -66.476     -43.557
  H      -59.247     -66.728     -43.893
  H      -58.721     -62.166     -43.766
  H      -58.797     -62.756     -42.123
  H      -60.269     -62.380     -42.985

 6  7  8  9  10  11  12  13  14  15  16  26  30  31  32  33  35 0
 6-311+G(2d,p)
 ****
 37  38 0
 6-311+G(2d,p)
 ****
 1  2  3  4  5  17  18  19  20  21  22  23  24  25 0
 3-21G
 ****
 27  28  29  34  36  39  40  41  42  43  44  45  46 0
 3-21G
 ****


