%nproc=1
%NoSave
%Mem=1900MB
#P OB98/GEN NMR

erre ene a

0 1
  C     -240.979     190.837     -71.771
  O     -241.938     189.819     -71.980
  H     -240.886     191.424     -72.688
  H     -240.009     190.391     -71.537
  H     -241.294     191.496     -70.957
  P     -242.364     188.953     -70.694
  C     -244.862     188.506     -71.362
  O     -243.550     187.999     -71.195
  C     -244.991     189.228     -72.703
  O     -244.661     188.299     -73.764
  C     -246.393     189.773     -72.978
  O     -246.271     191.022     -73.661
  C     -247.003     188.735     -73.903
  O     -248.058     189.281     -74.693
  C     -245.772     188.255     -74.683
  N     -245.952     186.914     -75.236
  C     -246.719     186.813     -76.402
  O     -247.223     187.818     -76.901
  N     -246.933     185.572     -76.948
  C     -246.483     184.517     -76.345
  N     -246.747     183.314     -76.926
  C     -245.714     184.573     -75.085
  C     -245.480     185.791     -74.599
  O     -243.108     190.052     -69.798
  O     -241.226     188.266     -70.016
  H     -248.731     189.655     -74.081
  H     -243.683     190.646     -70.309
  H     -245.374     183.662     -74.613
  H     -244.917     185.923     -73.682
  H     -245.548     188.944     -75.510
  H     -247.421     187.909     -73.312
  H     -246.991     189.907     -72.078
  H     -244.242     190.026     -72.738
  H     -247.292     183.318     -77.778
  H     -245.106     189.198     -70.550
  H     -246.491     182.429     -76.517
  H     -245.558     187.664     -71.314
  P     -247.245     192.229     -73.269
  C     -245.813     194.302     -72.719
  O     -246.565     193.615     -73.710
  O     -247.785     192.204     -71.878
  O     -248.439     192.082     -74.337
  H     -249.278     192.289     -73.878
  H     -245.415     195.204     -73.135
  H     -245.010     193.679     -72.385
  H     -246.448     194.541     -71.891

 6  7  8  9  10  11  12  13  14  15  16  26  30  31  32  33  35 0
 6-311+G(2d,p)
 ****
 37  38 0
 6-311+G(2d,p)
 ****
 1  2  3  4  5  17  18  19  20  21  22  23  24  25 0
 3-21G
 ****
 27  28  29  34  36  39  40  41  42  43  44  45  46 0
 3-21G
 ****


