%nproc=1
%NoSave
%Mem=1900MB
#P OB98/GEN NMR

erre ene a

0 1
  C       42.862    -336.080     -63.762
  O       43.981    -335.250     -63.457
  P       44.200    -333.942     -64.356
  C       45.733    -334.819     -66.298
  O       44.444    -334.423     -65.866
  C       45.762    -335.039     -67.823
  O       45.757    -333.741     -68.472
  C       46.997    -335.754     -68.355
  O       46.708    -336.261     -69.661
  C       47.991    -334.618     -68.462
  O       49.085    -334.952     -69.315
  C       47.103    -333.446     -68.936
  N       47.537    -332.128     -68.425
  C       48.390    -331.361     -69.214
  O       48.809    -331.711     -70.314
  N       48.792    -330.166     -68.678
  C       48.403    -329.655     -67.479
  O       48.863    -328.620     -67.009
  C       47.397    -330.439     -66.752
  C       47.024    -331.622     -67.243
  O       45.626    -333.396     -63.884
  O       43.125    -332.920     -64.202
  H       49.533    -335.725     -68.902
  H       45.515    -332.605     -63.324
  H       49.463    -329.631     -69.211
  H       47.011    -330.031     -65.824
  H       46.295    -332.224     -66.705
  H       47.086    -333.381     -70.031
  H       48.408    -334.398     -67.474
  H       47.365    -336.562     -67.717
  H       44.850    -335.563     -68.128
  H       46.034    -335.730     -65.778
  H       46.464    -334.047     -66.030
  P       45.995    -337.691     -69.773
  C       47.834    -339.368     -70.418
  O       47.098    -338.778     -69.362
  O       45.265    -337.960     -71.048
  O       45.007    -337.698     -68.509
  H       44.316    -338.374     -68.638
  H       48.822    -339.646     -70.046
  H       47.951    -338.677     -71.261
  H       47.315    -340.268     -70.758
  H       42.839    -336.910     -63.087
  H       42.947    -336.439     -64.766
  H       41.960    -335.514     -63.661

 3  4  5  6  7  8  9  10  11  12  13  23  28  29  30  31  32 0
 6-311+G(2d,p)
 ****
 33  34 0
 6-311+G(2d,p)
 ****
 1  2  14  15  16  17  18  19  20  21  22  24  25  26  27 0
 3-21G
 ****
 35  36  37  38  39  40  41  42  43  44  45 0
 3-21G
 ****


