%nproc=1
%NoSave
%Mem=1900MB
#P OB98/GEN NMR

erre ene a

0 1
  C     -764.313    2500.968     182.248
  O     -762.997    2500.497     182.106
  H     -764.840    2500.315     182.965
  H     -764.832    2500.938     181.303
  H     -764.311    2501.993     182.662
  P     -761.960    2501.345     181.225
  C     -760.492    2502.149     183.221
  O     -761.391    2502.530     182.172
  C     -759.934    2503.409     183.919
  O     -759.038    2504.088     183.024
  C     -761.041    2504.394     184.354
  O     -760.692    2504.953     185.593
  C     -760.987    2505.459     183.263
  O     -761.444    2506.717     183.725
  C     -759.503    2505.453     182.895
  N     -758.330    2509.538     180.140
  C     -758.374    2509.358     181.517
  N     -758.110    2510.459     182.250
  N     -758.680    2508.242     182.088
  C     -758.935    2507.238     181.205
  C     -758.917    2507.273     179.844
  C     -758.588    2508.518     179.212
  O     -758.542    2508.724     177.993
  N     -759.209    2506.021     179.318
  C     -759.434    2505.261     180.368
  N     -759.275    2505.938     181.526
  O     -762.467    2501.807     179.909
  O     -760.691    2500.397     181.068
  H     -761.225    2507.386     183.031
  H     -760.643    2500.022     180.151
  H     -758.103    2510.395     179.747
  H     -759.710    2504.216     180.327
  H     -758.908    2506.081     183.557
  H     -761.585    2505.154     182.388
  H     -757.828    2511.348     181.873
  H     -762.021    2503.916     184.403
  H     -758.104    2510.365     183.268
  H     -759.371    2503.069     184.797
  H     -759.674    2501.599     182.734
  H     -761.005    2501.505     183.910
  P     -760.615    2503.986     186.907
  C     -758.375    2504.939     187.738
  O     -759.074    2503.787     187.287
  O     -761.437    2502.734     186.786
  O     -761.178    2504.936     188.076
  H     -761.640    2504.378     188.713
  H     -757.361    2504.677     187.959
  H     -758.846    2505.319     188.621
  H     -758.392    2505.688     186.974

 6  7  8  9  10  11  12  13  14  15  26  29  33  34 0
 6-311+G(2d,p)
 ****
 36  38  39  40  41 0
 6-311+G(2d,p)
 ****
 1  2  3  4  5  16  17  18  19  20  21  22  23  24  25 0
 3-21G
 ****
 27  28  30  31  32  35  37  42  43  44  45  46  47 0
 3-21G
 ****
 48  49 0
 3-21G
 ****


