%nproc=1
%NoSave
%Mem=1900MB
#P OB98/GEN NMR

erre ene a

0 1
  C     -519.217     120.533     120.554
  O     -517.897     120.530     120.052
  H     -519.175     120.435     121.643
  H     -519.777     119.689     120.149
  H     -519.725     121.469     120.309
  P     -517.663     120.829     118.495
  C     -515.831     122.019     117.128
  O     -516.457     121.881     118.398
  C     -515.360     123.459     116.937
  O     -516.443     124.374     117.213
  C     -514.230     123.866     117.877
  O     -512.993     123.318     117.473
  C     -514.324     125.381     117.791
  O     -513.654     125.875     116.625
  C     -515.849     125.605     117.681
  N     -516.435     126.024     118.953
  C     -515.991     127.237     119.464
  O     -515.161     127.948     118.905
  N     -516.490     127.584     120.694
  C     -517.258     126.786     121.493
  O     -517.476     127.029     122.674
  C     -517.749     125.546     120.874
  C     -517.312     125.220     119.657
  O     -518.883     121.190     117.715
  O     -517.000     119.477     117.949
  H     -517.677     118.955     117.478
  H     -512.733     125.545     116.687
  H     -516.139     128.442     121.093
  H     -518.421     124.920     121.450
  H     -517.632     124.293     119.191
  H     -516.070     126.372     116.926
  H     -513.875     125.858     118.662
  H     -514.471     123.553     118.899
  H     -515.062     123.587     115.888
  H     -516.559     121.767     116.349
  H     -514.990     121.322     117.068
  P     -511.732     123.354     118.459
  C     -509.432     122.216     118.575
  O     -510.769     122.127     118.091
  O     -512.065     123.480     119.909
  O     -510.891     124.626     117.964
  H     -510.681     125.186     118.735
  H     -508.884     121.348     118.271
  H     -509.443     122.275     119.643
  H     -508.965     123.091     118.174

 6  7  8  9  10  11  12  13  14  15  16  27  31  32  33  34  35 0
 6-311+G(2d,p)
 ****
 36  37 0
 6-311+G(2d,p)
 ****
 1  2  3  4  5  17  18  19  20  21  22  23  24  25 0
 3-21G
 ****
 26  28  29  30  38  39  40  41  42  43  44  45 0
 3-21G
 ****


