%nproc=1
%NoSave
%Mem=1900MB
#P OB98/GEN NMR

erre ene a

0 1
  C       -5.141    -132.099    -224.722
  O       -5.943    -132.872    -223.853
  H       -4.351    -132.733    -225.132
  H       -4.681    -131.274    -224.173
  H       -5.741    -131.705    -225.548
  P       -7.237    -132.161    -223.229
  C       -6.495    -132.347    -220.740
  O       -6.763    -131.496    -221.845
  C       -6.719    -131.583    -219.433
  O       -5.828    -130.435    -219.410
  C       -8.152    -131.055    -219.277
  O       -8.532    -131.138    -217.901
  C       -8.033    -129.599    -219.692
  O       -9.051    -128.765    -219.155
  C       -6.632    -129.259    -219.168
  N       -6.052    -128.091    -219.825
  C       -6.029    -126.899    -219.110
  O       -6.392    -126.776    -217.939
  N       -5.564    -125.806    -219.795
  C       -5.153    -125.783    -221.095
  O       -4.767    -124.768    -221.662
  C       -5.209    -127.073    -221.803
  C       -5.650    -128.149    -221.145
  O       -8.142    -133.394    -222.751
  O       -7.966    -131.234    -224.140
  H       -8.745    -133.669    -223.466
  H       -8.950    -128.750    -218.183
  H       -5.539    -124.932    -219.290
  H       -4.899    -127.094    -222.840
  H       -5.717    -129.111    -221.643
  H       -6.658    -129.101    -218.082
  H       -8.067    -129.514    -220.783
  H       -8.871    -131.594    -219.892
  H       -6.441    -132.227    -218.591
  H       -5.453    -132.679    -220.788
  H       -7.154    -133.219    -220.785
  P       -8.756    -132.606    -217.285
  C      -11.369    -132.740    -217.357
  O      -10.131    -133.143    -217.920
  O       -9.127    -132.259    -215.771
  O       -7.572    -133.499    -217.463
  H       -9.663    -131.455    -215.675
  H      -12.172    -133.190    -217.902
  H      -11.455    -131.675    -217.410
  H      -11.414    -133.051    -216.334

 6  7  8  9  10  11  12  13  14  15  16  27  31  32  33  34  35 0
 6-311+G(2d,p)
 ****
 36  37 0
 6-311+G(2d,p)
 ****
 1  2  3  4  5  17  18  19  20  21  22  23  24  25 0
 3-21G
 ****
 26  28  29  30  38  39  40  41  42  43  44  45 0
 3-21G
 ****


