%nproc=1
%NoSave
%Mem=1900MB
#P OB98/GEN NMR

erre ene a

0 1
  C      332.112     399.110    -198.129
  O      331.616     398.771    -199.406
  H      332.953     398.448    -197.896
  H      331.344     398.968    -197.366
  H      332.468     400.143    -198.118
  P      330.257     399.458    -199.922
  C      331.350     400.418    -202.043
  O      330.396     399.488    -201.531
  C      331.626     400.168    -203.528
  O      332.313     398.902    -203.687
  C      330.365     400.125    -204.401
  O      330.570     400.922    -205.573
  C      330.235     398.657    -204.773
  O      329.500     398.470    -205.981
  C      331.707     398.231    -204.818
  N      331.888     396.784    -204.741
  C      332.045     396.116    -205.965
  O      332.007     396.743    -207.023
  N      332.220     394.759    -205.956
  C      332.186     394.106    -204.832
  N      332.354     392.754    -204.887
  C      331.974     394.765    -203.525
  C      331.836     396.092    -203.555
  O      329.946     400.777    -199.296
  O      329.129     398.352    -199.680
  H      328.569     398.762    -205.821
  H      328.241     398.784    -199.668
  H      331.939     394.181    -202.613
  H      331.688     396.665    -202.639
  H      332.190     398.597    -205.728
  H      329.716     398.116    -203.971
  H      329.479     400.488    -203.890
  H      332.323     400.935    -203.879
  H      332.494     392.347    -205.809
  H      332.272     400.326    -201.458
  H      332.340     392.150    -204.079
  H      330.941     401.424    -201.917
  P      329.572     402.170    -205.758
  C      331.555     403.797    -206.144
  O      330.329     403.279    -206.648
  O      329.526     402.818    -204.294
  O      328.215     401.794    -206.243
  H      328.715     402.545    -203.830
  H      331.946     404.519    -206.830
  H      332.258     402.999    -206.027
  H      331.383     404.263    -205.196

 6  7  8  9  10  11  12  13  14  15  16  26  30  31  32  33  35 0
 6-311+G(2d,p)
 ****
 37  38 0
 6-311+G(2d,p)
 ****
 1  2  3  4  5  17  18  19  20  21  22  23  24  25 0
 3-21G
 ****
 27  28  29  34  36  39  40  41  42  43  44  45  46 0
 3-21G
 ****


