%nproc=1
%NoSave
%Mem=1900MB
#P OB98/GEN NMR

erre ene a

0 1
  C      111.896     -17.930     319.776
  O      113.144     -17.458     319.254
  P      113.221     -16.387     318.059
  C      113.868     -14.488     319.680
  O      112.962     -14.924     318.667
  C      115.000     -13.635     319.101
  O      114.468     -12.486     318.404
  C      115.969     -13.080     320.138
  O      116.889     -14.081     320.543
  C      116.584     -11.909     319.380
  O      117.619     -12.370     318.497
  C      115.386     -11.388     318.575
  N      115.997      -6.641     320.377
  C      116.849      -7.492     319.764
  N      116.614      -8.745     319.317
  C      115.333      -9.091     319.537
  C      114.347      -8.330     320.151
  C      114.721      -7.047     320.586
  N      113.857      -6.189     321.225
  N      113.160      -9.028     320.220
  C      113.420     -10.183     319.638
  N      114.715     -10.269     319.210
  O      112.367     -16.721     316.881
  O      114.768     -16.349     317.646
  H      117.840     -11.634     317.897
  H      114.852     -16.099     316.706
  H      117.857      -7.115     319.610
  H      112.704     -10.984     319.504
  H      115.682     -11.069     317.571
  H      117.030     -11.161     320.046
  H      115.415     -12.702     321.007
  H      115.534     -14.244     318.363
  H      114.289     -15.376     320.168
  H      114.210      -5.297     321.536
  H      112.918      -6.500     321.429
  H      113.305     -13.911     320.421
  P      116.880     -14.617     322.053
  C      115.888     -16.916     321.499
  O      115.690     -15.685     322.167
  O      116.895     -13.565     323.109
  O      118.186     -15.540     322.134
  H      118.532     -15.533     323.046
  H      115.673     -16.793     320.434
  H      115.200     -17.657     321.917
  H      116.914     -17.273     321.626
  H      112.081     -18.633     320.561
  H      111.340     -18.405     318.995
  H      111.335     -17.104     320.161

 3  4  5  6  7  8  9  10  11  12  22  25  29  30  31  32 0
 6-311+G(2d,p)
 ****
 33  36  37 0
 6-311+G(2d,p)
 ****
 1  2  13  14  15  16  17  18  19  20  21  23  24  26 0
 3-21G
 ****
 27  28  34  35  38  39  40  41  42  43  44  45  46  47  48 0
 3-21G
 ****


