%nproc=1
%NoSave
%Mem=1900MB
#P OB98/GEN NMR

erre ene a

0 1
  C       40.849     -96.864      -2.171
  O       40.395     -98.181      -1.927
  H       40.622     -96.246      -1.298
  H       40.341     -96.443      -3.043
  H       41.930     -96.863      -2.336
  P       40.545     -99.222      -3.142
  C       38.019     -98.956      -3.742
  O       39.369     -98.793      -4.150
  C       37.097     -98.216      -4.705
  O       37.297     -96.789      -4.607
  C       37.327     -98.558      -6.174
  O       36.741     -99.793      -6.552
  C       36.640     -97.379      -6.838
  O       35.212     -97.557      -6.780
  C       37.092     -96.216      -5.926
  N       38.313     -95.557      -6.397
  C       38.179     -94.700      -7.495
  O       37.083     -94.531      -8.030
  N       39.302     -94.076      -7.988
  C       40.453     -94.280      -7.427
  N       41.532     -93.647      -7.964
  C       40.635     -95.161      -6.259
  C       39.538     -95.760      -5.802
  O       39.995    -100.596      -2.531
  O       41.900     -99.321      -3.758
  H       34.986     -98.246      -7.433
  H       39.929    -101.276      -3.244
  H       41.618     -95.309      -5.833
  H       39.596     -96.425      -4.947
  H       36.301     -95.461      -5.833
  H       36.907     -97.264      -7.891
  H       38.391     -98.534      -6.432
  H       36.059     -98.421      -4.406
  H       41.387     -93.100      -8.801
  H       37.912     -98.553      -2.730
  H       42.484     -93.885      -7.712
  H       37.755    -100.019      -3.733
  P       37.707    -100.917      -7.168
  C       37.214    -100.145      -9.598
  O       38.196    -100.384      -8.601
  O       36.696    -102.098      -7.542
  O       38.798    -101.383      -6.253
  H       37.085    -102.972      -7.353
  H       37.690     -99.796     -10.491
  H       36.524     -99.405      -9.249
  H       36.688    -101.053      -9.806

 6  7  8  9  10  11  12  13  14  15  16  26  30  31  32  33  35 0
 6-311+G(2d,p)
 ****
 37  38 0
 6-311+G(2d,p)
 ****
 1  2  3  4  5  17  18  19  20  21  22  23  24  25 0
 3-21G
 ****
 27  28  29  34  36  39  40  41  42  43  44  45  46 0
 3-21G
 ****


