%nproc=1
%NoSave
%Mem=1900MB
#P OB98/GEN NMR

erre ene a

0 1
  C     -356.513    -199.500    -145.346
  O     -356.640    -199.488    -146.755
  H     -356.845    -200.472    -144.971
  H     -357.140    -198.720    -144.904
  H     -355.470    -199.346    -145.059
  P     -356.257    -198.114    -147.490
  C     -353.769    -198.826    -147.636
  O     -354.703    -197.856    -147.183
  C     -352.342    -198.368    -147.350
  O     -351.400    -199.426    -147.624
  C     -351.895    -197.161    -148.167
  O     -352.330    -195.952    -147.568
  C     -350.382    -197.323    -148.132
  O     -349.838    -196.844    -146.883
  C     -350.220    -198.847    -148.244
  N     -347.400    -198.649    -152.426
  C     -347.296    -197.939    -151.247
  N     -346.309    -197.018    -151.178
  N     -348.095    -198.106    -150.226
  C     -349.069    -199.017    -150.455
  C     -349.282    -199.782    -151.579
  C     -348.356    -199.625    -152.681
  O     -348.346    -200.281    -153.718
  N     -350.366    -200.607    -151.421
  C     -350.828    -200.315    -150.220
  N     -350.078    -199.352    -149.595
  O     -356.996    -197.000    -146.607
  O     -356.660    -198.020    -148.922
  H     -350.108    -195.919    -146.752
  H     -357.336    -196.304    -147.202
  H     -346.740    -198.499    -153.167
  H     -351.688    -200.777    -149.756
  H     -349.350    -199.208    -147.682
  H     -349.896    -196.748    -148.920
  H     -345.866    -196.646    -152.005
  H     -352.243    -197.236    -149.205
  H     -346.282    -196.450    -150.341
  H     -352.275    -198.150    -146.277
  H     -353.898    -198.965    -148.714
  H     -353.961    -199.776    -147.127
  P     -352.142    -194.589    -148.388
  C     -354.239    -195.103    -149.829
  O     -352.859    -194.766    -149.813
  O     -350.582    -194.602    -148.748
  O     -352.506    -193.353    -147.636
  H     -350.106    -193.963    -148.185
  H     -354.574    -195.186    -150.842
  H     -354.798    -194.340    -149.330
  H     -354.384    -196.037    -149.328

 6  7  8  9  10  11  12  13  14  15  26  29  33  34 0
 6-311+G(2d,p)
 ****
 36  38  39  40  41 0
 6-311+G(2d,p)
 ****
 1  2  3  4  5  16  17  18  19  20  21  22  23  24  25 0
 3-21G
 ****
 27  28  30  31  32  35  37  42  43  44  45  46  47 0
 3-21G
 ****
 48  49 0
 3-21G
 ****


