%nproc=1
%NoSave
%Mem=1900MB
#P OB98/GEN NMR

erre ene a

0 1
  C      407.422       9.982     -40.733
  O      407.230       9.060     -39.674
  H      408.433      10.387     -40.658
  H      406.704      10.804     -40.652
  H      407.312       9.482     -41.696
  P      405.802       8.329     -39.613
  C      407.075       6.157     -38.957
  O      405.995       7.041     -38.676
  C      407.191       5.114     -37.849
  O      405.916       4.462     -37.650
  C      408.177       3.993     -38.156
  O      409.520       4.384     -37.944
  C      407.704       2.918     -37.183
  O      408.244       3.112     -35.872
  C      406.182       3.126     -37.171
  N      404.281      -1.619     -37.291
  C      404.845      -0.897     -36.295
  N      405.314       0.377     -36.335
  C      405.134       0.903     -37.567
  C      404.580       0.283     -38.675
  C      404.142      -1.038     -38.509
  N      403.596      -1.788     -39.527
  N      404.608       1.127     -39.773
  C      405.157       2.236     -39.322
  N      405.490       2.145     -38.001
  O      405.650       7.711     -41.088
  O      404.651       9.205     -39.262
  H      407.960       2.341     -35.344
  H      405.075       8.284     -41.624
  H      404.920      -1.391     -35.327
  H      405.356       3.128     -39.923
  H      405.759       3.045     -36.155
  H      408.011       1.932     -37.528
  H      408.034       3.637     -39.184
  H      407.461       5.627     -36.915
  H      408.012       6.729     -39.011
  H      406.891       5.673     -39.926
  H      403.365      -2.760     -39.351
  H      403.589      -1.414     -40.462
  P      410.669       3.418     -38.499
  C      412.120       5.557     -38.868
  O      412.060       4.225     -38.396
  O      410.393       3.348     -40.084
  O      410.696       2.055     -37.884
  H      410.591       2.452     -40.411
  H      413.108       5.942     -38.726
  H      411.421       6.159     -38.326
  H      411.876       5.578     -39.910

 6  7  8  9  10  11  12  13  14  15  25  28  32  33  34  35 0
 6-311+G(2d,p)
 ****
 36  37  40 0
 6-311+G(2d,p)
 ****
 1  2  3  4  5  16  17  18  19  20  21  22  23  24 0
 3-21G
 ****
 26  27  29  30  31  38  39 41  42  43  44  45  46  47  48 0
 3-21G
 ****


