%nproc=1
%NoSave
%Mem=1900MB
#P OB98/GEN NMR

erre ene a

0 1
  C      189.208    -142.297     -56.982
  O      188.511    -143.072     -56.036
  P      188.904    -143.159     -54.495
  C      189.298    -145.692     -53.976
  O      188.417    -144.576     -53.924
  C      188.554    -146.960     -54.431
  O      187.619    -147.341     -53.388
  C      187.720    -146.701     -55.703
  O      187.780    -147.756     -56.652
  C      186.352    -146.338     -55.145
  O      185.299    -146.490     -56.086
  C      186.279    -147.226     -53.905
  N      181.680    -145.430     -52.682
  C      182.091    -146.046     -53.848
  N      181.215    -146.013     -54.877
  N      183.264    -146.607     -53.990
  C      184.073    -146.457     -52.919
  C      183.777    -145.864     -51.710
  C      182.466    -145.284     -51.549
  O      182.101    -144.624     -50.576
  N      184.864    -145.839     -50.872
  C      185.831    -146.379     -51.589
  N      185.403    -146.742     -52.849
  O      188.655    -141.940     -53.665
  O      190.508    -143.365     -54.579
  H      184.474    -146.193     -55.651
  H      190.898    -142.911     -53.807
  H      180.791    -144.944     -52.657
  H      186.856    -146.506     -51.262
  H      185.921    -148.227     -54.149
  H      186.382    -145.277     -54.866
  H      180.365    -145.465     -54.840
  H      188.123    -145.844     -56.250
  H      181.580    -146.235     -55.801
  H      189.270    -147.777     -54.551
  H      189.686    -145.826     -52.962
  H      190.145    -145.487     -54.637
  P      188.137    -147.682     -58.208
  C      186.014    -148.945     -58.903
  O      187.425    -148.909     -58.955
  O      189.690    -148.070     -58.289
  O      187.905    -146.354     -58.838
  H      190.128    -147.509     -58.960
  H      185.674    -149.943     -59.198
  H      185.601    -148.213     -59.604
  H      185.652    -148.727     -57.891
  H      188.749    -142.408     -57.942
  H      190.225    -142.626     -57.033
  H      189.180    -141.268     -56.690

 3  4  5  6  7  8  9  10  11  12  23  26  30  31 0
 6-311+G(2d,p)
 ****
 33  35  36  37  38 0
 6-311+G(2d,p)
 ****
 1  2  13  14  15  16  17  18  19  20  21  22  24  25 0
 3-21G
 ****
 27  28  29  32  34  39  40  41  42  43  44  45  46  47  48  49 0
 3-21G
 ****


