%nproc=1
%NoSave
%Mem=1900MB
#P OB98/GEN NMR

erre ene a

0 1
  C      157.016     124.982      94.045
  O      157.159     124.895      92.642
  H      157.952     125.353      94.470
  H      156.810     123.993      94.459
  H      156.211     125.672      94.306
  P      155.862     124.453      91.808
  C      155.304     126.943      91.346
  O      154.847     125.698      91.855
  C      154.581     127.293      90.048
  O      153.155     127.433      90.325
  C      155.052     128.602      89.395
  O      154.981     128.439      87.974
  C      153.977     129.594      89.812
  O      153.918     130.730      88.953
  C      152.744     128.693      89.759
  N      147.800     129.578      89.488
  C      148.644     128.930      88.608
  N      148.088     128.440      87.479
  N      149.924     128.774      88.816
  C      150.340     129.284      90.001
  C      149.608     129.950      90.954
  C      148.196     130.140      90.698
  O      147.401     130.721      91.430
  N      150.403     130.337      92.005
  C      151.609     129.903      91.687
  N      151.621     129.259      90.480
  O      155.179     123.372      92.770
  O      156.133     123.901      90.449
  H      154.808     131.138      88.932
  H      155.475     122.473      92.532
  H      146.823     129.682      89.273
  H      152.499     130.032      92.286
  H      152.403     128.513      88.732
  H      154.162     129.945      90.834
  H      147.102     128.482      87.274
  H      156.060     128.914      89.684
  H      148.683     127.924      86.842
  H      154.684     126.452      89.352
  H      156.380     126.872      91.150
  H      155.129     127.724      92.093
  P      156.346     128.518      87.139
  C      156.875     125.975      87.032
  O      157.244     127.251      87.532
  O      157.122     129.732      87.840
  O      156.160     128.755      85.677
  H      157.722     130.156      87.199
  H      157.570     125.240      87.382
  H      156.885     125.994      85.962
  H      155.892     125.728      87.375

 6  7  8  9  10  11  12  13  14  15  26  29  33  34 0
 6-311+G(2d,p)
 ****
 36  38  39  40  41 0
 6-311+G(2d,p)
 ****
 1  2  3  4  5  16  17  18  19  20  21  22  23  24  25 0
 3-21G
 ****
 27  28  30  31  32  35  37  42  43  44  45  46  47 0
 3-21G
 ****
 48  49 0
 3-21G
 ****


