%nproc=1
%NoSave
%Mem=1900MB
#P OB98/GEN NMR

erre ene a

0 1
  C     -257.019     802.056     339.874
  O     -257.163     800.649     339.728
  P     -258.115     800.029     338.585
  C     -260.421     800.889     339.373
  O     -259.529     799.792     339.311
  C     -261.860     800.382     339.313
  O     -262.073     799.627     338.110
  C     -262.254     799.450     340.465
  O     -262.477     800.182     341.660
  C     -263.475     798.771     339.871
  O     -264.629     799.613     339.977
  C     -263.076     798.613     338.389
  N     -262.584     797.285     338.055
  C     -263.535     796.385     337.559
  O     -264.708     796.709     337.409
  N     -263.112     795.117     337.215
  C     -261.870     794.782     337.374
  N     -261.499     793.540     336.948
  C     -260.851     795.685     337.937
  C     -261.271     796.916     338.260
  O     -257.559     798.845     337.881
  O     -258.426     801.270     337.618
  H     -264.892     799.621     340.917
  H     -257.759     801.387     336.898
  H     -259.830     795.353     338.061
  H     -260.591     797.636     338.656
  H     -263.926     798.859     337.737
  H     -263.711     797.803     340.341
  H     -261.462     798.714     340.630
  H     -262.530     801.268     339.290
  H     -262.185     793.024     336.408
  H     -260.243     801.539     338.511
  H     -260.528     793.314     336.755
  H     -260.240     801.460     340.290
  P     -261.515     799.884     342.908
  C     -263.043     797.996     343.851
  O     -262.475     799.270     344.054
  O     -261.132     801.336     343.434
  O     -260.324     799.055     342.577
  H     -260.231     801.579     343.135
  H     -263.457     797.641     344.802
  H     -262.282     797.286     343.515
  H     -263.849     798.065     343.115
  H     -256.350     802.264     340.682
  H     -257.974     802.493     340.080
  H     -256.625     802.470     338.969

 3  4  5  6  7  8  9  10  11  12  13  23  27  28  29  30  32 0
 6-311+G(2d,p)
 ****
 34  35 0
 6-311+G(2d,p)
 ****
 1  2  14  15  16  17  18  19  20  21  22  24  25  26 0
 3-21G
 ****
 31  33  36  37  38  39  40  41  42  43  44  45  46 0
 3-21G
 ****


