%nproc=1
%NoSave
%Mem=1900MB
#P OB98/GEN NMR

erre ene a

0 1
  C     -225.301     254.979     -49.727
  O     -224.542     255.364     -48.599
  H     -226.339     254.804     -49.434
  H     -225.272     255.789     -50.460
  H     -224.884     254.076     -50.182
  P     -224.309     254.246     -47.470
  C     -221.725     253.986     -47.334
  O     -222.892     254.594     -46.797
  C     -221.182     254.814     -48.501
  O     -220.997     256.183     -48.058
  C     -219.836     254.310     -49.032
  O     -219.822     254.442     -50.455
  C     -218.832     255.270     -48.414
  O     -217.634     255.358     -49.175
  C     -219.641     256.562     -48.361
  N     -216.011     260.004     -47.341
  C     -216.325     259.331     -48.467
  N     -217.314     258.433     -48.658
  C     -218.049     258.295     -47.539
  C     -217.853     258.911     -46.316
  C     -216.767     259.800     -46.233
  N     -216.417     260.464     -45.078
  N     -218.795     258.482     -45.400
  C     -219.546     257.625     -46.059
  N     -219.131     257.477     -47.355
  O     -223.998     252.938     -48.346
  O     -225.441     254.029     -46.526
  H     -217.088     256.082     -48.804
  H     -224.834     252.561     -48.675
  H     -215.694     259.534     -49.329
  H     -220.388     257.083     -45.649
  H     -219.636     257.101     -49.321
  H     -218.573     254.931     -47.405
  H     -219.633     253.273     -48.761
  H     -221.939     254.838     -49.297
  H     -221.978     252.980     -47.686
  H     -215.591     261.038     -45.094
  H     -216.930     260.278     -44.229
  H     -220.965     253.911     -46.550
  P     -220.285     253.160     -51.302
  C     -221.362     254.558     -53.201
  O     -220.393     253.580     -52.851
  O     -221.806     252.949     -50.857
  O     -219.463     251.939     -51.036
  H     -221.955     252.018     -50.609
  H     -221.322     254.738     -54.255
  H     -221.157     255.467     -52.676
  H     -222.337     254.205     -52.936

 6  7  8  9  10  11  12  13  14  15  25  28  32  33  34  35 0
 6-311+G(2d,p)
 ****
 36  39  40 0
 6-311+G(2d,p)
 ****
 1  2  3  4  5  16  17  18  19  20  21  22  23  24 0
 3-21G
 ****
 26  27  29  30  31  37  38  41  42  43  44  45  46  47 0
 3-21G
 ****
 48 0
 3-21G
 ****


