%nproc=1
%NoSave
%Mem=1900MB
#P OB98/GEN NMR

erre ene a

0 1
  C     -148.758     787.571     451.507
  O     -148.777     787.805     450.115
  P     -147.509     787.629     449.163
  C     -146.629     790.109     449.136
  O     -147.232     789.028     448.416
  C     -146.886     791.447     448.427
  O     -146.157     792.484     449.130
  C     -146.356     791.415     446.970
  O     -147.204     792.041     446.029
  C     -144.941     791.973     447.123
  O     -144.389     792.470     445.914
  C     -145.123     793.000     448.245
  N     -141.962     796.628     449.897
  C     -143.221     796.760     449.322
  N     -143.589     798.019     448.980
  N     -144.010     795.738     449.077
  C     -143.451     794.550     449.357
  C     -142.236     794.289     449.936
  C     -141.376     795.425     450.232
  O     -140.219     795.340     450.644
  N     -141.973     792.929     450.013
  C     -143.028     792.383     449.471
  N     -143.944     793.310     449.028
  O     -147.436     786.378     448.363
  O     -146.300     787.587     450.243
  H     -144.403     791.742     445.275
  H     -145.614     786.979     449.879
  H     -141.366     797.437     449.997
  H     -143.176     791.292     449.340
  H     -145.485     793.952     447.854
  H     -144.284     791.157     447.452
  H     -142.944     798.782     449.024
  H     -146.289     790.378     446.616
  H     -144.378     798.112     448.346
  H     -147.948     791.689     448.466
  H     -145.569     789.889     449.191
  H     -147.021     790.138     450.166
  P     -148.245     791.367     445.021
  C     -146.785     790.843     442.976
  O     -147.799     791.664     443.517
  O     -149.592     792.229     445.186
  O     -148.543     789.923     445.303
  H     -150.373     791.646     445.168
  H     -146.379     791.327     442.089
  H     -147.211     789.880     442.705
  H     -145.970     790.695     443.704
  H     -149.730     787.759     451.914
  H     -148.046     788.223     451.969
  H     -148.484     786.554     451.694

 3  4  5  6  7  8  9  10  11  12  23  26  30  31 0
 6-311+G(2d,p)
 ****
 33  35  36  37  38 0
 6-311+G(2d,p)
 ****
 1  2  13  14  15  16  17  18  19  20  21  22  24  25 0
 3-21G
 ****
 27  28  29  32  34  39  40  41  42  43  44  45  46  47  48  49 0
 3-21G
 ****


