%nproc=1
%NoSave
%Mem=1900MB
#P OB98/GEN NMR

erre ene a

0 1
  C     -345.344     401.066    -296.631
  O     -346.194     402.070    -297.165
  P     -345.605     403.555    -297.289
  C     -345.539     405.652    -295.750
  O     -345.793     404.256    -295.855
  C     -346.335     406.253    -294.585
  O     -347.752     406.250    -294.929
  C     -346.183     405.515    -293.245
  O     -346.243     406.512    -292.214
  C     -347.420     404.633    -293.236
  O     -347.740     404.122    -291.953
  C     -348.441     405.590    -293.839
  N     -353.110     403.899    -292.578
  C     -352.183     404.610    -291.881
  N     -350.967     405.030    -292.286
  C     -350.746     404.649    -293.561
  C     -351.570     403.917    -294.387
  C     -352.810     403.527    -293.854
  N     -353.748     402.803    -294.550
  N     -350.977     403.705    -295.616
  C     -349.808     404.296    -295.532
  N     -349.630     404.916    -294.319
  O     -346.696     404.307    -298.193
  O     -344.234     403.649    -297.880
  H     -348.542     403.570    -292.000
  H     -346.268     404.914    -298.825
  H     -352.466     404.873    -290.860
  H     -349.057     404.324    -296.316
  H     -348.761     406.363    -293.131
  H     -347.250     403.777    -293.880
  H     -345.235     404.964    -293.171
  H     -346.036     407.305    -294.478
  H     -345.853     406.142    -296.667
  H     -354.513     402.402    -294.018
  H     -353.429     402.352    -295.412
  H     -344.466     405.816    -295.619
  P     -345.496     406.221    -290.820
  C     -346.119     404.853    -288.737
  O     -346.508     405.260    -290.030
  O     -345.713     407.615    -290.070
  O     -344.065     405.774    -290.916
  H     -346.640     407.888    -290.083
  H     -346.940     404.292    -288.279
  H     -345.901     405.730    -288.111
  H     -345.231     404.208    -288.796
  H     -345.866     400.132    -296.608
  H     -345.053     401.337    -295.638
  H     -344.473     400.972    -297.245

 3  4  5  6  7  8  9  10  11  12  22  25  29  30  31  32 0
 6-311+G(2d,p)
 ****
 33  36  37 0
 6-311+G(2d,p)
 ****
 1  2  13  14  15  16  17  18  19  20  21  23  24  26 0
 3-21G
 ****
 27  28  34  35  38  39  40  41  42  43  44  45  46  47  48 0
 3-21G
 ****


