%nproc=1
%NoSave
%Mem=1900MB
#P OB98/GEN NMR

erre ene a

0 1
  C        2.339    -108.369     153.265
  O        2.151    -107.543     154.405
  P        2.638    -106.017     154.311
  C        4.506    -106.472     156.043
  O        4.187    -106.006     154.738
  C        5.001    -105.330     156.923
  O        4.960    -105.753     158.312
  C        6.440    -104.879     156.620
  O        6.499    -103.445     156.629
  C        7.228    -105.379     157.818
  O        8.406    -104.611     158.042
  C        6.172    -105.257     158.916
  N        7.604    -104.762     163.736
  C        7.142    -103.809     162.850
  N        7.114    -102.534     163.298
  N        6.747    -104.077     161.632
  C        6.801    -105.398     161.332
  C        7.230    -106.438     162.123
  C        7.721    -106.117     163.448
  O        8.226    -106.904     164.245
  N        7.120    -107.639     161.472
  C        6.631    -107.329     160.287
  N        6.465    -105.975     160.135
  O        1.896    -105.330     155.550
  O        2.315    -105.324     153.032
  H        8.150    -103.672     157.975
  H        1.362    -104.574     155.236
  H        7.913    -104.500     164.654
  H        6.412    -108.042     159.501
  H        6.013    -104.202     159.180
  H        7.517    -106.423     157.650
  H        7.371    -102.265     164.235
  H        6.840    -105.259     155.674
  H        6.760    -101.825     162.672
  H        4.305    -104.486     156.825
  H        5.288    -107.237     155.970
  H        3.612    -106.925     156.485
  P        7.379    -102.768     155.469
  C        9.515    -102.691     156.960
  O        8.896    -103.175     155.782
  O        7.320    -101.209     155.819
  O        6.894    -103.065     154.089
  H        7.475    -100.673     155.019
  H        8.801    -102.200     157.629
  H       10.293    -101.974     156.686
  H        9.976    -103.530     157.490
  H        1.970    -109.352     153.472
  H        3.382    -108.422     153.031
  H        1.807    -107.956     152.434

 3  4  5  6  7  8  9  10  11  12  23  26  30  31  33  0
 6-311+G(2d,p)
 ****
 35  36  37  38 0
 6-311+G(2d,p)
 ****
 1  2  13  14  15  16  17  18  19  20  21  22  24  25  27  28  29 0
 3-21G
 ****
 32  34  39  40  41  42  43  44  45  46  47  48  49 0
 3-21G
 ****


