%nproc=1
%NoSave
%Mem=1900MB
#P OB98/GEN NMR

erre ene a

0 1
  C      -97.732     -30.958     -36.285
  O      -97.517     -32.340     -36.107
  P      -96.135     -33.071     -36.421
  C      -93.685     -32.918     -35.524
  O      -94.964     -32.307     -35.635
  C      -92.570     -31.937     -35.915
  O      -92.654     -31.690     -37.342
  C      -92.742     -30.578     -35.215
  O      -91.527     -30.013     -34.739
  C      -93.535     -29.770     -36.233
  O      -93.446     -28.367     -36.040
  C      -92.979     -30.300     -37.552
  N      -94.259     -27.656     -41.697
  C      -93.113     -27.572     -40.932
  N      -92.295     -26.531     -41.201
  N      -92.823     -28.411     -39.972
  C      -93.790     -29.329     -39.744
  C      -94.964     -29.512     -40.437
  C      -95.257     -28.599     -41.516
  O      -96.314     -28.567     -42.147
  N      -95.735     -30.501     -39.883
  C      -95.043     -30.896     -38.833
  N      -93.870     -30.191     -38.688
  O      -95.892     -33.460     -37.842
  O      -96.285     -34.430     -35.560
  H      -94.271     -27.969     -36.375
  H      -95.827     -35.137     -36.059
  H      -94.467     -26.930     -42.374
  H      -95.355     -31.661     -38.131
  H      -92.062     -29.780     -37.836
  H      -94.591     -30.039     -36.117
  H      -92.564     -25.790     -41.833
  H      -93.342     -30.689     -34.306
  H      -91.591     -26.305     -40.504
  H      -91.598     -32.396     -35.711
  H      -93.691     -33.774     -36.208
  H      -93.527     -33.298     -34.512
  P      -91.303     -28.993     -33.531
  C      -91.775     -28.967     -31.011
  O      -92.139     -29.507     -32.267
  O      -92.085     -27.665     -33.958
  O      -89.873     -28.677     -33.239
  H      -91.567     -26.881     -33.691
  H      -92.214     -29.585     -30.223
  H      -92.165     -27.949     -30.922
  H      -90.687     -28.957     -30.891
  H      -98.736     -30.714     -36.006
  H      -97.576     -30.702     -37.312
  H      -97.048     -30.409     -35.672

 3  4  5  6  7  8  9  10  11  12  23  26  30  31 0
 6-311+G(2d,p)
 ****
 33  35  36  37  38 0
 6-311+G(2d,p)
 ****
 1  2  13  14  15  16  17  18  19  20  21  22  24  25 0
 3-21G
 ****
 27  28  29  32  34  39  40  41  42  43  44  45  46  47  48  49 0
 3-21G
 ****


