%nproc=1
%NoSave
%Mem=1900MB
#P OB98/GEN NMR

erre ene a

0 1
  C      -99.670    -165.013      44.664
  O      -99.483    -163.685      45.121
  P      -98.499    -162.697      44.333
  C      -96.524    -163.295      45.921
  O      -97.004    -163.215      44.598
  C      -95.004    -163.085      45.975
  O      -94.382    -164.161      45.226
  C      -94.512    -161.793      45.332
  O      -93.188    -161.525      45.806
  C      -94.460    -162.171      43.867
  O      -93.617    -161.305      43.113
  C      -94.011    -163.655      43.920
  N      -94.650    -164.453      42.859
  C      -94.337    -164.121      41.542
  O      -93.512    -163.260      41.250
  N      -95.072    -164.754      40.575
  C      -96.094    -165.628      40.805
  O      -96.929    -165.940      39.963
  C      -96.211    -166.115      42.188
  C      -95.515    -165.499      43.145
  O      -98.592    -161.346      45.191
  O      -98.848    -162.472      42.901
  H      -94.078    -160.434      43.059
  H      -99.236    -160.737      44.786
  H      -94.945    -164.407      39.631
  H      -96.911    -166.921      42.390
  H      -95.620    -165.800      44.185
  H      -92.923    -163.749      43.804
  H      -95.469    -162.101      43.443
  H      -95.159    -160.927      45.507
  H      -94.662    -163.155      47.014
  H      -96.796    -164.265      46.348
  H      -97.010    -162.536      46.549
  P      -92.893    -160.072      46.424
  C      -91.702    -159.236      44.307
  O      -92.799    -159.061      45.183
  O      -91.766    -159.997      47.403
  O      -94.295    -159.677      47.101
  H      -94.156    -158.966      47.752
  H      -91.995    -158.904      43.306
  H      -91.392    -160.284      44.258
  H      -90.864    -158.623      44.654
  H     -100.356    -165.519      45.310
  H      -98.731    -165.527      44.667
  H     -100.064    -164.996      43.669

 3  4  5  6  7  8  9  10  11  12  13  23  28  29  30  31  32 0
 6-311+G(2d,p)
 ****
 33  34 0
 6-311+G(2d,p)
 ****
 1  2  14  15  16  17  18  19  20  21  22  24  25  26  27 0
 3-21G
 ****
 35  36  37  38  39  40  41  42  43  44  45 0
 3-21G
 ****


