%nproc=1
%NoSave
%Mem=1900MB
#P OB98/GEN NMR

erre ene a

0 1
  C     -314.612     229.760     420.326
  O     -313.546     228.900     420.656
  P     -312.549     229.256     421.862
  C     -311.362     227.927     423.720
  O     -312.373     227.909     422.715
  C     -311.269     226.557     424.394
  O     -312.482     226.262     425.143
  C     -311.132     225.393     423.424
  O     -309.943     225.315     422.665
  C     -311.457     224.217     424.325
  O     -310.322     223.827     425.109
  C     -312.562     224.818     425.235
  N     -313.892     224.323     424.876
  C     -314.208     223.048     425.332
  O     -313.446     222.349     425.999
  N     -315.443     222.577     424.964
  C     -316.346     223.219     424.170
  O     -317.417     222.720     423.845
  C     -315.947     224.557     423.706
  C     -314.757     225.040     424.072
  O     -312.925     230.456     422.660
  O     -311.127     229.383     421.134
  H     -309.722     223.326     424.521
  H     -310.832     228.570     420.679
  H     -315.687     221.647     425.279
  H     -316.649     225.100     423.084
  H     -314.439     226.025     423.742
  H     -312.372     224.554     426.284
  H     -311.771     223.332     423.756
  H     -311.943     225.466     422.693
  H     -310.443     226.588     425.112
  H     -311.626     228.678     424.479
  H     -310.403     228.213     423.274
  P     -309.767     224.347     421.403
  C     -308.400     224.416     419.199
  O     -308.988     225.149     420.254
  O     -310.969     223.549     420.994
  O     -308.624     223.344     421.927
  H     -308.769     222.470     421.517
  H     -307.885     225.120     418.532
  H     -309.175     223.896     418.614
  H     -307.673     223.697     419.588
  H     -315.157     229.352     419.501
  H     -314.225     230.721     420.057
  H     -315.263     229.861     421.169

 3  4  5  6  7  8  9  10  11  12  13  23  28  29  30  31  32 0
 6-311+G(2d,p)
 ****
 33  34 0
 6-311+G(2d,p)
 ****
 1  2  14  15  16  17  18  19  20  21  22  24  25  26  27 0
 3-21G
 ****
 35  36  37  38  39  40  41  42  43  44  45 0
 3-21G
 ****


