%nproc=1
%NoSave
%Mem=1900MB
#P OB98/GEN NMR

erre ene a

0 1
  C     -188.821    -459.738    -899.090
  O     -187.597    -460.388    -899.350
  H     -189.125    -459.896    -898.050
  H     -188.696    -458.662    -899.250
  H     -189.600    -460.106    -899.760
  P     -187.570    -461.982    -899.170
  C     -187.475    -463.579    -897.120
  O     -187.394    -462.248    -897.590
  C     -186.507    -463.771    -895.960
  O     -186.983    -463.071    -894.770
  C     -186.331    -465.228    -895.520
  O     -185.423    -465.931    -896.350
  C     -185.770    -465.039    -894.120
  O     -184.376    -464.675    -894.200
  C     -186.590    -463.843    -893.620
  N     -188.467    -465.092    -889.010
  C     -187.216    -464.772    -889.430
  N     -186.799    -464.452    -890.660
  C     -187.824    -464.491    -891.540
  C     -189.157    -464.807    -891.260
  C     -189.461    -465.109    -889.930
  N     -190.723    -465.446    -889.510
  N     -189.903    -464.768    -892.420
  C     -189.059    -464.400    -893.360
  N     -187.788    -464.235    -892.890
  O     -186.149    -462.404    -899.770
  O     -188.700    -462.723    -899.800
  H     -183.890    -465.478    -894.480
  H     -186.153    -463.348    -900.000
  H     -186.450    -464.758    -888.640
  H     -189.321    -464.263    -894.410
  H     -186.011    -463.184    -892.960
  H     -185.837    -465.934    -893.500
  H     -187.306    -465.746    -895.450
  H     -185.526    -463.335    -896.240
  H     -187.208    -464.267    -897.920
  H     -190.804    -465.832    -888.570
  H     -191.441    -465.609    -890.210
  H     -188.505    -463.790    -896.790
  P     -185.561    -467.525    -896.390
  C     -184.815    -469.442    -894.790
  O     -184.649    -468.076    -895.190
  O     -184.729    -467.930    -897.710
  O     -186.967    -468.048    -896.440
  H     -185.055    -468.768    -898.090
  H     -184.144    -469.662    -893.986
  H     -184.602    -470.085    -895.618
  H     -185.823    -469.599    -894.467

 6  7  8  9  10  11  12  13  14  15  25  28  32  33  34  35 0
 6-311+G(2d,p)
 ****
 36  39  40 0
 6-311+G(2d,p)
 ****
 1  2  3  4  5  16  17  18  19  20  21  22  23  24 0
 3-21G
 ****
 26  27  29  30  31  37  38  41  42  43  44  45  46  47 0
 3-21G
 ****
 48 0
 3-21G
 ****


