%nproc=1
%NoSave
%Mem=1900MB
#P OB98/GEN NMR

erre ene a

0 1
  C      107.544      33.730     -12.591
  O      107.986      35.049     -12.837
  H      108.397      33.050     -12.534
  H      107.014      33.709     -11.635
  H      106.861      33.406     -13.381
  P      108.786      35.302     -14.205
  C      111.054      36.253     -13.365
  O      109.773      36.534     -13.912
  C      111.968      37.457     -13.560
  O      112.244      37.652     -14.966
  C      111.383      38.776     -13.068
  O      111.530      38.938     -11.668
  C      112.248      39.765     -13.831
  O      113.539      39.868     -13.202
  C      112.373      39.082     -15.198
  N      111.073      42.654     -18.622
  C      112.146      42.529     -17.812
  N      112.416      41.551     -16.925
  C      111.438      40.632     -16.920
  C      110.282      40.629     -17.682
  C      110.116      41.701     -18.576
  N      109.015      41.840     -19.393
  N      109.495      39.535     -17.374
  C      110.184      38.875     -16.465
  N      111.360      39.502     -16.150
  O      107.683      35.942     -15.173
  O      109.444      34.104     -14.802
  H      114.018      40.582     -13.665
  H      107.954      35.838     -16.104
  H      112.884      43.324     -17.885
  H      109.876      37.944     -16.008
  H      113.350      39.252     -15.665
  H      111.824      40.771     -13.858
  H      110.339      38.896     -13.381
  H      112.923      37.243     -13.061
  H      111.481      35.387     -13.879
  H      108.907      42.730     -19.854
  H      108.233      41.216     -19.255
  H      110.948      36.022     -12.301
  P      110.196      39.189     -10.812
  C      111.170      41.561     -10.378
  O      110.528      40.412      -9.832
  O      110.149      37.926      -9.834
  O      108.949      39.327     -11.624
  H      109.232      37.730      -9.563
  H      111.323      42.285      -9.605
  H      110.555      41.983     -11.145
  H      112.114      41.278     -10.794

 6  7  8  9  10  11  12  13  14  15  25  28  32  33  34  35 0
 6-311+G(2d,p)
 ****
 36  39  40 0
 6-311+G(2d,p)
 ****
 1  2  3  4  5  16  17  18  19  20  21  22  23  24 0
 3-21G
 ****
 26  27  29  30  31  37  38  41  42  43  44  45  46  47 0
 3-21G
 ****
 48 0
 3-21G
 ****


