%nproc=1
%NoSave
%Mem=1900MB
#P OB98/GEN NMR

erre ene a

0 1
  C     -166.911     106.511     343.603
  O     -167.852     105.571     344.079
  H     -166.286     106.839     344.436
  H     -167.424     107.383     343.187
  H     -166.272     106.060     342.837
  P     -168.815     104.896     342.992
  C     -170.972     104.697     344.419
  O     -169.882     104.015     343.807
  C     -171.384     103.999     345.715
  O     -171.665     102.601     345.432
  C     -170.309     104.032     346.820
  O     -170.981     104.139     348.082
  C     -169.689     102.652     346.728
  O     -169.031     102.265     347.930
  C     -170.926     101.820     346.388
  N     -171.122      96.881     347.355
  C     -171.615      97.958     348.070
  N     -172.262      97.675     349.222
  N     -171.490      99.200     347.684
  C     -170.856      99.328     346.500
  C     -170.312      98.354     345.698
  C     -170.435      96.986     346.148
  O     -170.003      95.994     345.569
  N     -169.715      98.899     344.581
  C     -169.904     100.203     344.716
  N     -170.584     100.511     345.860
  O     -167.864     103.799     342.310
  O     -169.400     105.831     341.979
  H     -169.721     102.138     348.628
  H     -167.440     104.168     341.514
  H     -171.236      95.953     347.705
  H     -169.554     100.951     344.017
  H     -171.567     101.648     347.260
  H     -168.957     102.615     345.912
  H     -172.440      96.737     349.556
  H     -169.583     104.842     346.718
  H     -172.672      98.444     349.738
  H     -172.319     104.452     346.068
  H     -171.820     104.696     343.725
  H     -170.678     105.731     344.624
  P     -171.181     105.606     348.704
  C     -170.792     104.534     351.056
  O     -171.557     105.436     350.263
  O     -172.569     106.081     348.059
  O     -170.073     106.559     348.408
  H     -172.584     107.054     347.994
  H     -171.165     104.536     352.059
  H     -169.767     104.840     351.056
  H     -170.869     103.547     350.649

 6  7  8  9  10  11  12  13  14  15  26  29  33  34 0
 6-311+G(2d,p)
 ****
 36  38  39  40  41 0
 6-311+G(2d,p)
 ****
 1  2  3  4  5  16  17  18  19  20  21  22  23  24  25 0
 3-21G
 ****
 27  28  30  31  32  35  37  42  43  44  45  46  47 0
 3-21G
 ****
 48  49 0
 3-21G
 ****


