%nproc=1
%NoSave
%Mem=1900MB
#P OB98/GEN NMR

erre ene a

0 1
  C       67.767    -163.344     533.842
  O       68.635    -163.302     532.707
  P       68.031    -162.684     531.350
  C       69.236    -160.423     530.943
  O       69.165    -161.806     530.629
  C       70.281    -159.690     530.084
  O       71.630    -160.045     530.490
  C       70.157    -159.990     528.591
  O       70.538    -158.804     527.873
  C       71.224    -161.054     528.363
  O       71.604    -161.123     526.985
  C       72.325    -160.559     529.322
  N       73.293    -161.602     529.679
  C       74.386    -161.765     528.831
  O       74.483    -161.097     527.794
  N       75.331    -162.715     529.160
  C       75.168    -163.464     530.193
  N       76.136    -164.391     530.459
  C       73.988    -163.370     531.083
  C       73.104    -162.423     530.764
  O       66.988    -161.584     531.887
  O       67.359    -163.694     530.476
  H       72.386    -161.713     526.922
  H       66.131    -161.704     531.439
  H       73.885    -164.032     531.921
  H       72.204    -162.266     531.363
  H       72.877    -159.723     528.882
  H       70.848    -162.036     528.668
  H       69.150    -160.301     528.284
  H       70.170    -158.614     530.261
  H       76.933    -164.420     529.827
  H       69.484    -160.283     532.001
  H       76.109    -165.021     531.238
  H       68.237    -159.976     530.803
  P       69.457    -157.641     527.694
  C       69.888    -156.096     529.712
  O       70.148    -156.330     528.329
  O       68.381    -158.023     528.829
  O       68.806    -157.478     526.353
  H       67.621    -157.423     528.770
  H       70.507    -155.256     530.045
  H       70.145    -156.983     530.302
  H       68.844    -155.837     529.857
  H       68.287    -163.774     534.673
  H       66.908    -163.939     533.612
  H       67.457    -162.351     534.091

 3  4  5  6  7  8  9  10  11  12  13  21  23  27  28  29  30  32 0
 6-311+G(2d,p)
 ****
 34  35 0
 6-311+G(2d,p)
 ****
 1  2  14  15  16  17  18  19  20  22  24  25  26 0
 3-21G
 ****
 31  33  36  37  38  39  40  41  42  43  44  45  46 0
 3-21G
 ****


