%nproc=1
%NoSave
%Mem=1900MB
#P OB98/GEN NMR

erre ene a

0 1
  C     -327.264     684.028     115.042
  O     -326.473     683.535     113.976
  P     -327.024     683.528     112.466
  C     -325.881     685.656     111.529
  O     -325.863     684.228     111.602
  C     -324.474     686.160     111.210
  O     -323.619     685.998     112.363
  C     -323.770     685.425     110.074
  O     -324.274     685.827     108.814
  C     -322.320     685.781     110.349
  O     -322.028     687.106     109.850
  C     -322.270     685.788     111.889
  N     -321.708     684.555     112.434
  C     -320.349     684.569     112.752
  O     -319.669     685.583     112.563
  N     -319.781     683.446     113.286
  C     -320.503     682.383     113.480
  N     -319.907     681.314     114.084
  C     -321.928     682.299     113.123
  C     -322.476     683.409     112.609
  O     -328.379     684.134     112.293
  O     -326.930     682.008     112.003
  H     -322.224     687.112     108.892
  H     -327.740     681.476     112.219
  H     -322.479     681.383     113.287
  H     -323.504     683.443     112.327
  H     -321.687     686.637     112.248
  H     -321.597     685.102     109.879
  H     -323.909     684.335     110.178
  H     -324.544     687.237     110.979
  H     -318.986     681.479     114.474
  H     -326.194     686.053     112.499
  H     -320.447     680.586     114.511
  H     -326.591     685.971     110.767
  P     -324.010     684.865     107.556
  C     -326.437     683.984     107.683
  O     -325.445     684.599     106.882
  O     -323.617     683.468     108.239
  O     -322.947     685.351     106.623
  H     -322.648     683.341     108.228
  H     -327.401     684.089     107.174
  H     -326.513     684.474     108.664
  H     -326.225     682.929     107.807
  H     -326.719     683.945     115.959
  H     -328.166     683.457     115.111
  H     -327.505     685.055     114.862

 3  4  5  6  7  8  9  10  11  12  13  23  27  28  29  30  32 0
 6-311+G(2d,p)
 ****
 34  35 0
 6-311+G(2d,p)
 ****
 1  2  14  15  16  17  18  19  20  21  22  24  25  26 0
 3-21G
 ****
 31  33  36  37  38  39  40  41  42  43  44  45  46 0
 3-21G
 ****


