%nproc=1
%NoSave
%Mem=1900MB
#P OB98/GEN NMR

erre ene a

0 1
  C     -102.778     106.659     -73.902
  O     -102.897     108.041     -73.591
  P     -103.450     109.089     -74.671
  C     -105.377     109.915     -73.177
  O     -105.019     109.216     -74.371
  C     -106.573     109.230     -72.516
  O     -106.125     107.975     -71.941
  C     -107.209     109.996     -71.349
  O     -108.160     110.979     -71.736
  C     -107.924     108.858     -70.625
  O     -109.153     108.536     -71.313
  C     -106.927     107.708     -70.763
  N     -106.763     106.940     -65.700
  C     -107.797     106.979     -66.586
  N     -107.756     107.203     -67.917
  C     -106.490     107.364     -68.328
  C     -105.340     107.351     -67.551
  C     -105.510     107.128     -66.174
  N     -104.457     107.066     -65.286
  N     -104.217     107.581     -68.339
  C     -104.688     107.708     -69.557
  N     -106.052     107.584     -69.604
  O     -103.081     108.774     -76.085
  O     -102.877     110.500     -74.179
  H     -108.927     108.447     -72.260
  H     -102.931     111.156     -74.903
  H     -108.785     106.808     -66.157
  H     -104.086     107.895     -70.433
  H     -107.419     106.739     -70.916
  H     -108.195     109.113     -69.595
  H     -106.447     110.420     -70.684
  H     -107.318     109.007     -73.287
  H     -105.647     110.939     -73.451
  H     -104.661     106.769     -64.347
  H     -103.519     107.040     -65.662
  H     -104.516     109.955     -72.497
  P     -107.601     112.282     -72.483
  C     -109.388     112.968     -74.274
  O     -108.216     112.235     -73.963
  O     -106.115     112.458     -72.409
  O     -108.418     113.467     -71.778
  H     -109.370     113.478     -71.961
  H     -109.541     112.936     -75.356
  H     -109.289     114.020     -73.964
  H     -110.249     112.516     -73.774
  H     -102.393     106.134     -73.053
  H     -102.112     106.536     -74.730
  H     -103.740     106.267     -74.157

 3  4  5  6  7  8  9  10  11  12  22  25  29  30  31  32 0
 6-311+G(2d,p)
 ****
 33  36  37 0
 6-311+G(2d,p)
 ****
 1  2  13  14  15  16  17  18  19  20  21  23  24  26 0
 3-21G
 ****
 27  28  34  35  38  39  40  41  42  43  44  45  46  47  48 0
 3-21G
 ****


