%nproc=1
%NoSave
%Mem=1900MB
#P OB98/GEN NMR

erre ene a

0 1
  C     -291.106     248.584     321.944
  O     -290.744     247.485     321.124
  P     -290.872     247.662     319.535
  C     -288.610     248.896     318.998
  O     -289.370     247.698     318.976
  C     -287.563     248.878     317.882
  O     -286.472     248.006     318.248
  C     -288.071     248.353     316.544
  O     -288.850     249.323     315.859
  C     -286.763     247.986     315.856
  O     -286.142     249.159     315.303
  C     -285.927     247.447     317.034
  N     -285.889     245.987     317.093
  C     -284.909     245.363     316.327
  O     -284.105     245.980     315.632
  N     -284.896     243.995     316.374
  C     -285.786     243.204     317.042
  O     -285.756     241.982     317.015
  C     -286.820     243.921     317.806
  C     -286.824     245.255     317.797
  O     -291.375     249.180     319.450
  O     -291.774     246.658     318.904
  H     -291.079     249.701     320.215
  H     -286.325     249.889     315.928
  H     -284.180     243.520     315.846
  H     -287.549     243.326     318.342
  H     -287.584     245.796     318.346
  H     -284.894     247.813     316.965
  H     -286.903     247.272     315.036
  H     -288.669     247.449     316.703
  H     -287.164     249.894     317.770
  H     -288.112     248.985     319.968
  H     -289.287     249.749     318.873
  P     -290.056     248.763     314.952
  C     -291.758     248.212     316.856
  O     -291.400     249.044     315.775
  O     -289.834     247.185     315.078
  O     -290.040     249.281     313.550
  H     -289.612     246.905     315.981
  H     -292.469     248.749     317.489
  H     -290.887     247.940     317.457
  H     -292.238     247.305     316.476
  H     -290.970     248.322     322.972
  H     -292.132     248.834     321.772
  H     -290.489     249.425     321.706

 3  4  5  6  7  8  9  10  11  12  13  24  28  29  30  31  32 0
 6-311+G(2d,p)
 ****
 33  34 0
 6-311+G(2d,p)
 ****
 1  2  14  15  16  17  18  19  20  21  22  23  25  26  27 0
 3-21G
 ****
 35  36  37  38  39  40  41  42  43  44  45 0
 3-21G
 ****


