%nproc=1
%NoSave
%Mem=1900MB
#P OB98/GEN NMR

erre ene a

0 1
  C     1267.056    2333.077    -128.353
  O     1267.264    2332.909    -126.959
  H     1266.600    2334.068    -128.513
  H     1266.375    2332.329    -128.723
  H     1268.002    2333.039    -128.880
  P     1267.851    2331.515    -126.429
  C     1270.198    2332.529    -126.223
  O     1269.409    2331.501    -126.803
  C     1271.481    2332.768    -127.074
  O     1271.016    2332.929    -128.473
  C     1272.234    2334.033    -126.674
  O     1273.637    2333.761    -126.417
  C     1271.891    2335.027    -127.751
  O     1272.840    2336.048    -127.969
  C     1271.629    2334.167    -128.983
  N     1270.738    2334.773    -129.978
  C     1271.019    2334.486    -131.293
  O     1271.945    2333.781    -131.722
  N     1270.203    2335.082    -132.221
  C     1269.139    2335.880    -131.952
  O     1268.399    2336.386    -132.808
  C     1268.889    2336.181    -130.520
  C     1269.695    2335.622    -129.604
  O     1267.085    2330.304    -126.855
  O     1267.846    2331.664    -124.848
  H     1273.194    2336.305    -127.099
  H     1267.097    2331.171    -124.456
  H     1270.382    2334.887    -133.210
  H     1268.083    2336.823    -130.249
  H     1269.537    2335.761    -128.554
  H     1272.549    2333.910    -129.474
  H     1270.952    2335.541    -127.452
  H     1271.873    2334.400    -125.705
  H     1272.106    2331.868    -127.035
  H     1270.484    2332.201    -125.205
  H     1269.638    2333.450    -126.152
  P     1274.213    2333.125    -125.071
  C     1274.876    2330.833    -126.177
  O     1274.098    2331.539    -125.202
  O     1273.706    2333.748    -123.835
  O     1275.797    2333.412    -125.180
  H     1276.098    2333.543    -124.282
  H     1274.664    2329.786    -126.113
  H     1275.917    2330.998    -125.990
  H     1274.628    2331.188    -127.156

 6  7  8  9  10  11  12  13  14  15  16  26  31  32  33  34  35 0
 6-311+G(2d,p)
 ****
 36  37 0
 6-311+G(2d,p)
 ****
 1  2  3  4  5  17  18  19  20  21  22  23  24  25 0
 3-21G
 ****
 27  28  29  30  38  39  40  41  42  43  44  45 0
 3-21G
 ****


