%nproc=1
%NoSave
%Mem=1900MB
#P OB98/GEN NMR

erre ene a

0 1
  C     1005.562     -10.578     534.245
  O     1006.385     -11.436     533.446
  P     1005.704     -12.123     532.160
  C     1005.795     -11.618     529.587
  O     1006.163     -11.232     530.914
  C     1006.837     -11.116     528.583
  O     1007.007      -9.678     528.711
  C     1008.218     -11.706     528.776
  O     1008.277     -13.046     528.303
  C     1009.067     -10.720     527.976
  O     1008.994     -11.006     526.571
  C     1008.347      -9.376     528.276
  N     1009.051      -8.558     529.249
  C     1010.162      -7.861     528.769
  O     1010.545      -7.919     527.595
  N     1010.825      -7.080     529.682
  C     1010.516      -6.965     531.008
  O     1011.150      -6.242     531.774
  C     1009.382      -7.768     531.477
  C     1008.709      -8.524     530.591
  O     1004.162     -11.745     532.385
  O     1005.994     -13.586     532.066
  H     1004.044     -10.861     532.786
  H     1009.512     -11.828     526.431
  H     1011.619      -6.549     529.341
  H     1009.123      -7.727     532.531
  H     1007.864      -9.125     530.914
  H     1008.242      -8.795     527.351
  H     1010.116     -10.748     528.262
  H     1008.503     -11.673     529.839
  H     1006.460     -11.335     527.569
  H     1004.810     -11.205     529.333
  H     1005.714     -12.714     529.556
  P     1008.910     -14.138     529.307
  C     1008.195     -14.938     531.690
  O     1007.815     -14.400     530.438
  O     1010.034     -13.261     530.043
  O     1009.429     -15.365     528.613
  H     1009.717     -12.381     530.302
  H     1007.413     -14.716     532.419
  H     1009.135     -14.510     532.045
  H     1008.301     -16.025     531.609
  H     1006.136     -10.191     535.061
  H     1004.731     -11.134     534.626
  H     1005.204      -9.767     533.645

 3  4  5  6  7  8  9  10  11  12  13  24  28  29  30  31  32 0
 6-311+G(2d,p)
 ****
 33  34 0
 6-311+G(2d,p)
 ****
 1  2  14  15  16  17  18  19  20  21  22  23  25  26  27 0
 3-21G
 ****
 35  36  37  38  39  40  41  42  43  44  45 0
 3-21G
 ****


