%nproc=1
%NoSave
%Mem=1900MB
#P OB98/GEN NMR

erre ene a

0 1
  C      236.595      72.604     183.788
  O      237.191      73.803     183.295
  P      236.229      74.996     182.825
  C      235.452      76.514     184.762
  O      236.464      76.253     183.793
  C      235.482      77.990     185.191
  O      234.316      78.262     186.016
  C      236.693      78.392     186.042
  O      237.869      78.840     185.374
  C      236.137      79.595     186.802
  O      236.236      80.775     185.982
  C      234.668      79.241     187.015
  N      233.544      80.485     191.848
  C      233.747      81.240     190.746
  N      234.044      80.828     189.497
  C      234.111      79.489     189.436
  C      233.926      78.593     190.475
  C      233.632      79.138     191.736
  N      233.436      78.373     192.861
  N      234.085      77.296     190.033
  C      234.379      77.411     188.754
  N      234.394      78.714     188.342
  O      234.804      74.629     182.582
  O      236.927      75.484     181.465
  H      237.169      80.841     185.703
  H      236.232      75.729     180.823
  H      233.663      82.312     190.888
  H      234.588      76.582     188.092
  H      234.008      80.103     186.873
  H      236.696      79.803     187.719
  H      236.954      77.596     186.750
  H      235.425      78.626     184.299
  H      235.608      75.874     185.634
  H      233.274      78.845     193.735
  H      233.555      77.371     192.807
  H      234.497      76.225     184.325
  P      239.315      78.266     185.753
  C      239.154      75.856     184.748
  O      239.650      77.170     184.631
  O      239.456      77.780     187.153
  O      240.282      79.479     185.370
  H      240.345      79.658     184.417
  H      239.308      75.337     183.796
  H      238.087      75.861     184.978
  H      239.701      75.322     185.530
  H      237.363      71.909     184.059
  H      235.977      72.174     183.028
  H      235.998      72.829     184.647

 3  4  5  6  7  8  9  10  11  12  22  25  29  30  31  32 0
 6-311+G(2d,p)
 ****
 33  36  37 0
 6-311+G(2d,p)
 ****
 1  2  13  14  15  16  17  18  19  20  21  23  24  26 0
 3-21G
 ****
 27  28  34  35  38  39  40  41  42  43  44  45  46  47  48 0
 3-21G
 ****


