%nproc=1
%NoSave
%Mem=1900MB
#P OB98/GEN NMR

erre ene a

0 1
  C      103.372     581.451     566.770
  O      103.418     582.499     567.713
  H      102.694     580.676     567.140
  H      104.369     581.019     566.657
  H      103.008     581.802     565.800
  P      103.947     583.933     567.245
  C      105.559     583.904     569.261
  O      105.411     584.153     567.870
  C      106.834     583.114     569.565
  O      106.710     581.778     569.029
  C      108.076     583.734     568.927
  O      108.705     584.734     569.711
  C      108.985     582.519     568.758
  O      109.778     582.295     569.933
  C      107.995     581.367     568.548
  N      110.360     579.370     564.474
  C      110.908     579.799     565.668
  N      112.250     579.719     565.768
  N      110.194     580.277     566.654
  C      108.876     580.390     566.371
  C      108.225     580.016     565.216
  C      109.008     579.422     564.158
  O      108.568     579.010     563.089
  N      106.884     580.321     565.275
  C      106.747     580.953     566.423
  N      107.913     580.948     567.160
  O      103.052     584.957     568.097
  O      103.827     584.218     565.778
  H      110.394     581.557     569.745
  H      102.919     585.778     567.585
  H      110.953     578.985     563.761
  H      105.828     581.393     566.789
  H      108.287     580.480     569.126
  H      109.684     582.666     567.931
  H      112.851     579.442     565.006
  H      107.843     584.127     567.931
  H      112.707     580.197     566.545
  H      106.948     583.013     570.651
  H      104.682     583.336     569.569
  H      105.552     584.847     569.819
  P      108.684     586.265     569.257
  C      111.283     586.256     568.882
  O      109.996     586.555     568.393
  O      108.966     587.049     570.625
  O      107.424     586.723     568.596
  H      108.133     587.379     571.009
  H      112.015     586.527     568.150
  H      111.353     585.208     569.085
  H      111.459     586.806     569.783

 6  7  8  9  10  11  12  13  14  15  26  29  33  34 0
 6-311+G(2d,p)
 ****
 36  38  39  40  41 0
 6-311+G(2d,p)
 ****
 1  2  3  4  5  16  17  18  19  20  21  22  23  24  25 0
 3-21G
 ****
 27  28  30  31  32  35  37  42  43  44  45  46  47 0
 3-21G
 ****
 48  49 0
 3-21G
 ****


