%nproc=1
%NoSave
%Mem=1900MB
#P OB98/GEN NMR

erre ene a

0 1
  C       33.262     194.746    -301.241
  O       33.725     195.982    -301.752
  P       32.796     197.276    -301.885
  C       35.067     198.509    -302.200
  O       33.682     198.464    -302.519
  C       35.875     199.400    -303.149
  O       35.293     200.725    -303.168
  C       37.305     199.566    -302.629
  O       38.281     198.581    -302.912
  C       37.698     200.991    -303.007
  O       38.484     201.048    -304.201
  C       36.356     201.693    -303.211
  N       36.687     206.629    -302.109
  C       36.817     206.001    -303.328
  N       37.281     206.770    -304.342
  N       36.541     204.735    -303.531
  C       36.185     204.083    -302.398
  C       36.008     204.597    -301.139
  C       36.277     206.004    -300.943
  O       36.254     206.580    -299.856
  N       35.713     203.619    -300.220
  C       35.748     202.501    -300.917
  N       36.072     202.728    -302.236
  O       31.906     197.585    -300.727
  O       31.847     196.859    -303.125
  H       39.269     200.490    -304.074
  H       30.971     197.253    -302.965
  H       36.991     207.587    -301.999
  H       35.585     201.511    -300.517
  H       36.314     202.164    -304.199
  H       38.314     201.439    -302.219
  H       37.637     207.697    -304.194
  H       37.244     199.574    -301.538
  H       37.546     206.305    -305.204
  H       35.815     199.039    -304.179
  H       35.442     197.481    -302.222
  H       35.188     198.871    -301.173
  P       39.588     198.270    -302.042
  C       39.267     195.833    -302.748
  O       40.200     196.877    -302.545
  O       39.024     197.915    -300.590
  O       40.571     199.392    -301.960
  H       39.723     198.054    -299.923
  H       39.799     194.877    -302.780
  H       38.752     195.984    -303.702
  H       38.528     195.799    -301.939
  H       34.061     194.035    -301.250
  H       32.458     194.387    -301.849
  H       32.917     194.882    -300.237

 3  4  5  6  7  8  9  10  11  12  23  26  30  31 0
 6-311+G(2d,p)
 ****
 33  35  36  37  38 0
 6-311+G(2d,p)
 ****
 1  2  13  14  15  16  17  18  19  20  21  22  24  25 0
 3-21G
 ****
 27  28  29  32  34  39  40  41  42  43  44  45  46  47  48  49 0
 3-21G
 ****


