%nproc=1
%NoSave
%Mem=1900MB
#P OB98/GEN NMR

erre ene a

0 1
  C      888.480     -99.356      20.713
  O      889.675     -99.687      20.032
  H      887.672     -99.990      20.326
  H      888.206     -98.305      20.549
  H      888.584     -99.547      21.788
  P      890.996     -98.841      20.377
  C      890.088     -96.944      18.874
  O      890.640     -97.292      20.136
  C      890.119     -95.424      18.675
  O      891.480     -94.989      18.912
  C      889.709     -94.987      17.268
  O      888.664     -94.017      17.244
  C      891.035     -94.622      16.605
  O      890.935     -93.687      15.555
  C      891.890     -94.161      17.801
  N      893.330     -94.275      17.574
  C      893.871     -93.507      16.553
  O      893.251     -92.721      15.840
  N      895.238     -93.661      16.358
  C      896.056     -94.479      17.066
  O      897.257     -94.559      16.842
  C      895.415     -95.279      18.130
  C      894.086     -95.142      18.330
  O      892.243     -99.309      19.691
  O      891.139     -98.945      21.968
  H      891.815     -93.578      15.162
  H      891.819     -99.601      22.196
  H      895.630     -93.096      15.611
  H      896.037     -95.936      18.695
  H      893.590     -95.715      19.100
  H      891.662     -93.130      18.032
  H      891.480     -95.542      16.185
  H      889.269     -95.852      16.707
  H      889.483     -94.952      19.446
  H      889.056     -97.309      18.846
  H      890.659     -97.433      18.074
  P      887.122     -94.358      17.007
  C      886.898     -93.694      14.471
  O      886.924     -94.716      15.473
  O      886.152     -93.377      17.608
  O      886.925     -95.770      17.772
  H      885.995     -95.763      18.116
  H      886.756     -94.141      13.509
  H      887.825     -93.160      14.482
  H      886.094     -93.017      14.672

 6  7  8  9  10  11  12  13  14  15  16  26  31  32  33  34  35 0
 6-311+G(2d,p)
 ****
 36  37 0
 6-311+G(2d,p)
 ****
 1  2  3  4  5  17  18  19  20  21  22  23  24  25 0
 3-21G
 ****
 27  28  29  30  38  39  40  41  42  43  44  45 0
 3-21G
 ****


