%nproc=1
%NoSave
%Mem=1900MB
#P OB98/GEN NMR

erre ene a

0 1
  C     -492.270    -541.220    -271.121
  O     -491.417    -540.533    -272.040
  P     -491.278    -541.086    -273.535
  C     -492.558    -539.228    -274.785
  O     -491.295    -539.830    -274.551
  C     -492.834    -538.113    -273.775
  O     -491.621    -537.329    -273.547
  C     -493.916    -537.136    -274.258
  O     -494.667    -536.632    -273.140
  C     -493.106    -535.983    -274.826
  O     -493.877    -534.785    -274.893
  C     -491.935    -535.953    -273.844
  N     -489.309    -531.556    -273.948
  C     -490.392    -531.940    -273.244
  N     -491.025    -533.128    -273.250
  C     -490.415    -533.985    -274.079
  C     -489.287    -533.745    -274.863
  C     -488.728    -532.461    -274.781
  N     -487.637    -532.065    -275.522
  N     -488.951    -534.866    -275.596
  C     -489.886    -535.747    -275.307
  N     -490.769    -535.278    -274.373
  O     -492.191    -542.204    -273.902
  O     -489.741    -541.547    -273.597
  H     -493.321    -534.102    -275.302
  H     -489.682    -542.403    -274.083
  H     -490.816    -531.179    -272.592
  H     -489.971    -536.733    -275.747
  H     -492.207    -535.457    -272.900
  H     -492.770    -536.240    -275.837
  H     -494.613    -537.550    -274.991
  H     -493.112    -538.564    -272.817
  H     -493.345    -539.988    -274.731
  H     -487.375    -531.090    -275.482
  H     -487.294    -532.678    -276.251
  H     -492.586    -538.856    -275.818
  P     -496.121    -537.300    -272.915
  C     -496.404    -537.066    -270.325
  O     -496.728    -536.586    -271.612
  O     -496.097    -538.791    -272.904
  O     -496.965    -536.677    -274.131
  H     -496.896    -535.710    -274.215
  H     -496.805    -536.376    -269.580
  H     -495.320    -537.133    -270.194
  H     -496.853    -538.052    -270.160
  H     -492.248    -540.723    -270.174
  H     -491.929    -542.227    -271.003
  H     -493.271    -541.224    -271.499

 3  4  5  6  7  8  9  10  11  12  22  25  29  30  31  32 0
 6-311+G(2d,p)
 ****
 33  36  37 0
 6-311+G(2d,p)
 ****
 1  2  13  14  15  16  17  18  19  20  21  23  24  26 0
 3-21G
 ****
 27  28  34  35  38  39  40  41  42  43  44  45  46  47  48 0
 3-21G
 ****


