%nproc=1
%NoSave
%Mem=1900MB
#P OB98/GEN NMR

erre ene a

0 1
  C      152.931    -667.288    -421.626
  O      154.326    -667.100    -421.510
  P      155.100    -668.045    -420.446
  C      155.319    -666.381    -418.439
  O      154.668    -667.525    -418.987
  C      155.697    -666.664    -416.979
  O      154.530    -666.610    -416.141
  C      156.322    -668.030    -416.759
  O      157.698    -668.012    -417.079
  C      156.048    -668.243    -415.267
  O      157.027    -667.549    -414.458
  C      154.659    -667.636    -415.107
  N      152.450    -671.679    -413.008
  C      153.653    -671.068    -412.705
  N      154.347    -671.583    -411.661
  N      154.136    -670.050    -413.359
  C      153.336    -669.633    -414.392
  C      152.137    -670.171    -414.782
  C      151.587    -671.272    -414.022
  O      150.485    -671.786    -414.172
  N      151.630    -669.513    -415.879
  C      152.510    -668.554    -416.111
  N      153.563    -668.579    -415.221
  O      156.630    -667.583    -420.598
  O      154.918    -669.524    -420.656
  H      157.072    -666.621    -414.761
  H      157.118    -668.203    -421.174
  H      152.133    -672.454    -412.454
  H      152.416    -667.812    -416.892
  H      154.534    -667.130    -414.141
  H      156.106    -669.300    -414.988
  H      154.061    -672.379    -411.132
  H      155.797    -668.799    -417.346
  H      155.251    -671.148    -411.437
  H      156.394    -665.869    -416.651
  H      154.636    -665.525    -418.479
  H      156.211    -666.138    -419.026
  P      158.287    -669.261    -417.918
  C      159.706    -670.144    -415.930
  O      158.670    -670.397    -416.851
  O      159.700    -668.721    -418.437
  O      157.417    -669.694    -419.052
  H      159.877    -669.072    -419.329
  H      159.503    -670.698    -415.010
  H      159.772    -669.073    -415.681
  H      160.656    -670.471    -416.358
  H      152.539    -666.610    -422.355
  H      152.466    -667.103    -420.680
  H      152.731    -668.294    -421.931

 3  4  5  6  7  8  9  10  11  12  23  26  30  31 0
 6-311+G(2d,p)
 ****
 33  35  36  37  38 0
 6-311+G(2d,p)
 ****
 1  2  13  14  15  16  17  18  19  20  21  22  24  25 0
 3-21G
 ****
 27  28  29  32  34  39  40  41  42  43  44  45  46  47  48  49 0
 3-21G
 ****


