%nproc=1
%NoSave
%Mem=1900MB
#P OB98/GEN NMR

erre ene a

0 1
  C        2.742      10.088      -0.096
  O        3.039      10.573       1.198
  H        1.787      10.495      -0.440
  H        3.529      10.411      -0.781
  H        2.703       8.995      -0.092
  P        2.011      10.179       2.365
  C        3.233       7.954       2.900
  O        2.036       8.578       2.460
  C        2.914       6.870       3.924
  O        1.978       5.922       3.370
  C        4.114       6.045       4.375
  O        4.883       6.726       5.355
  C        3.418       4.827       4.961
  O        2.930       5.133       6.280
  C        2.239       4.637       3.994
  N        0.104       1.347       0.710
  C       -0.433       2.243       1.566
  N        0.201       3.099       2.394
  C        1.532       2.983       2.265
  C        2.226       2.133       1.420
  C        1.455       1.278       0.616
  N        2.018       0.317      -0.208
  N        3.589       2.289       1.581
  C        3.713       3.203       2.520
  N        2.499       3.657       2.959
  O        0.586      10.502       1.705
  O        2.202      10.908       3.653
  H        2.458       4.340       6.596
  H        0.290      11.383       1.998
  H       -1.517       2.273       1.595
  H        4.654       3.562       2.914
  H        1.322       4.339       4.514
  H        4.076       3.958       5.053
  H        4.729       5.731       3.524
  H        2.427       7.350       4.783
  H        3.887       8.702       3.359
  H        1.423      -0.495      -0.348
  H        2.999       0.139      -0.033
  H        3.741       7.520       2.034
  P        6.343       6.150       5.690
  C        7.415       7.511       3.770
  O        7.186       6.223       4.325
  O        6.071       4.585       5.887
  O        7.000       6.740       6.889
  H        6.390       4.303       6.766
  H        7.984       7.415       2.869
  H        7.956       8.111       4.472
  H        6.477       7.977       3.551

 6  7  8  9  10  11  12  13  14  15  25  28  32  33  34  35 0
 6-311+G(2d,p)
 ****
 36  39  40 0
 6-311+G(2d,p)
 ****
 1  2  3  4  5  16  17  18  19  20  21  22  23  24 0
 3-21G
 ****
 26  27  29  30  31  37  38  41  42  43  44  45  46  47  48 0
 3-21G
 ****


