%nproc=1
%NoSave
%Mem=1900MB
#P OB98/GEN NMR

erre ene a

0 1
  C      260.985     208.082     502.234
  O      259.927     208.360     503.132
  H      261.745     207.497     502.758
  H      261.438     209.016     501.885
  H      260.618     207.507     501.383
  P      258.692     209.201     502.548
  C      256.598     208.324     503.813
  O      257.407     208.246     502.648
  C      256.246     206.915     504.292
  O      257.465     206.183     504.581
  C      255.440     206.889     505.588
  O      254.072     207.170     505.371
  C      255.703     205.468     506.061
  O      254.824     204.531     505.423
  C      257.149     205.224     505.617
  N      259.328     202.772     509.531
  C      258.493     202.350     508.553
  N      257.966     203.065     507.537
  C      258.404     204.336     507.575
  C      259.257     204.907     508.504
  C      259.727     204.062     509.527
  N      260.556     204.494     510.538
  N      259.441     206.250     508.238
  C      258.726     206.483     507.160
  N      258.082     205.356     506.721
  O      259.003     209.257     500.980
  O      258.523     210.562     503.131
  H      253.921     204.752     505.722
  H      259.396     210.122     500.754
  H      258.205     201.302     508.595
  H      258.634     207.442     506.664
  H      257.293     204.225     505.190
  H      255.550     205.383     507.137
  H      255.874     207.588     506.314
  H      255.714     206.396     503.486
  H      255.674     208.864     503.579
  H      257.143     208.870     504.593
  H      260.800     203.852     511.273
  H      260.771     205.481     510.607
  P      253.500     208.563     505.930
  C      252.775     209.442     503.585
  O      253.589     209.627     504.734
  O      254.627     209.050     506.961
  O      252.159     208.467     506.577
  H      254.207     209.505     507.719
  H      252.956     210.234     502.889
  H      251.745     209.448     503.873
  H      253.012     208.504     503.127

 6  7  8  9  10  11  12  13  14  15  25  28  32  33  34  35 0
 6-311+G(2d,p)
 ****
 36  37  40 0
 6-311+G(2d,p)
 ****
 1  2  3  4  5  16  17  18  19  20  21  22  23  24 0
 3-21G
 ****
 26  27  29  30  31  38  39 41  42  43  44  45  46  47  48 0
 3-21G
 ****


