%nproc=1
%NoSave
%Mem=1900MB
#P OB98/GEN NMR

erre ene a

0 1
  C     -283.816     -30.678     160.061
  O     -284.592     -30.176     161.139
  P     -284.045     -30.367     162.630
  C     -283.404     -32.405     164.114
  O     -284.126     -31.930     162.988
  C     -283.091     -33.895     163.953
  O     -282.211     -34.083     162.800
  C     -282.388     -34.523     165.166
  O     -282.839     -35.886     165.271
  C     -280.929     -34.503     164.753
  O     -280.126     -35.412     165.488
  C     -281.070     -34.834     163.265
  N     -279.864     -34.516     162.491
  C     -278.746     -35.315     162.690
  O     -278.713     -36.263     163.477
  N     -277.619     -34.948     162.005
  C     -277.480     -33.841     161.224
  O     -276.413     -33.506     160.726
  C     -278.696     -33.027     161.044
  C     -279.813     -33.399     161.676
  O     -285.195     -29.707     163.528
  O     -282.710     -29.744     162.887
  H     -279.217     -35.340     165.139
  H     -284.937     -28.808     163.805
  H     -276.803     -35.525     162.130
  H     -278.627     -32.153     160.414
  H     -280.725     -32.812     161.579
  H     -281.314     -35.900     163.133
  H     -280.520     -33.497     164.902
  H     -282.572     -33.989     166.104
  H     -284.027     -34.431     163.734
  H     -284.006     -32.262     165.011
  H     -282.475     -31.832     164.225
  P     -282.831     -36.566     166.728
  C     -281.031     -37.805     168.161
  O     -281.352     -37.129     166.963
  O     -283.702     -37.884     166.445
  O     -283.395     -35.694     167.803
  H     -283.467     -38.319     165.605
  H     -281.877     -38.388     168.538
  H     -280.731     -37.081     168.920
  H     -280.188     -38.482     167.973
  H     -284.314     -30.473     159.137
  H     -283.692     -31.735     160.172
  H     -282.856     -30.205     160.062

 3  4  5  6  7  8  9  10  11  12  13  23  28  29  30  31  32 0
 6-311+G(2d,p)
 ****
 33  34 0
 6-311+G(2d,p)
 ****
 1  2  14  15  16  17  18  19  20  21  22  24  25  26 0
 3-21G
 ****
 27  35  36  37  38  39  40  41  42  43  44  45 0
 3-21G
 ****


