%nproc=1
%NoSave
%Mem=1900MB
#P OB98/GEN NMR

erre ene a

0 1
  C      850.635    -896.730    -228.948
  O      851.120    -895.910    -227.900
  P      852.501    -896.320    -227.181
  C      854.182    -894.940    -228.600
  O      853.665    -896.220    -228.291
  C      855.633    -894.830    -228.116
  O      855.682    -895.240    -226.727
  C      856.637    -895.700    -228.887
  O      857.887    -894.990    -228.889
  C      856.751    -896.930    -228.016
  O      857.955    -897.660    -228.258
  C      856.650    -896.320    -226.638
  N      858.063    -899.130    -222.672
  C      858.814    -898.330    -223.516
  N      860.102    -898.210    -223.203
  N      858.330    -897.680    -224.533
  C      857.002    -897.890    -224.720
  C      856.148    -898.680    -223.974
  C      856.692    -899.350    -222.828
  O      856.033    -900.000    -222.011
  N      854.895    -898.690    -224.521
  C      854.960    -897.850    -225.518
  N      856.201    -897.300    -225.641
  O      852.318    -897.910    -226.990
  O      852.812    -895.610    -225.895
  H      857.952    -897.950    -229.196
  H      851.972    -898.110    -226.099
  H      858.474    -899.590    -221.868
  H      854.140    -897.580    -226.177
  H      857.595    -895.910    -226.282
  H      855.906    -897.610    -228.217
  H      860.560    -898.650    -222.395
  H      856.326    -895.920    -229.912
  H      860.691    -897.610    -223.772
  H      855.923    -893.780    -228.153
  H      853.587    -894.180    -228.079
  H      854.106    -894.750    -229.684
  P      858.672    -894.860    -230.281
  C      858.266    -892.300    -230.432
  O      858.084    -893.580    -231.033
  O      858.090    -896.070    -231.152
  O      860.160    -894.940    -230.159
  H      858.778    -896.400    -231.749
  H      858.227    -891.520    -231.208
  H      859.231    -892.220    -229.929
  H      857.489    -892.140    -229.692
  H      849.716    -896.327    -229.320
  H      850.467    -897.720    -228.578
  H      851.356    -896.762    -229.738

 3  4  5  6  7  8  9  10  11  12  23  26  30  31 0
 6-311+G(2d,p)
 ****
 33  35  36  37  38 0
 6-311+G(2d,p)
 ****
 1  2  13  14  15  16  17  18  19  20  21  22  24  25 0
 3-21G
 ****
 27  28  29  32  34  39  40  41  42  43  44  45  46  47  48  49 0
 3-21G
 ****


