%nproc=1
%NoSave
%Mem=1900MB
#P OB98/GEN NMR

erre ene a

0 1
  C        0.700     188.341    -135.707
  O        1.281     188.926    -134.536
  P        0.291     189.290    -133.324
  C        0.713     189.683    -130.767
  O        1.241     189.657    -132.087
  C        1.824     189.418    -129.755
  O        2.243     188.031    -129.804
  C        3.093     190.229    -129.994
  O        2.919     191.583    -129.606
  C        4.098     189.446    -129.160
  O        3.983     189.802    -127.771
  C        3.622     187.991    -129.370
  N        4.454     187.248    -130.307
  C        5.701     186.853    -129.827
  O        6.105     187.126    -128.696
  N        6.484     186.147    -130.704
  C        6.156     185.835    -131.993
  O        6.894     185.190    -132.728
  C        4.849     186.321    -132.456
  C        4.069     186.995    -131.607
  O       -0.295     187.848    -132.962
  O       -0.728     190.316    -133.692
  H        0.354     187.132    -133.073
  H        4.606     189.226    -127.287
  H        7.384     185.838    -130.370
  H        4.570     186.111    -133.483
  H        3.103     187.366    -131.933
  H        3.624     187.451    -128.413
  H        5.131     189.637    -129.462
  H        3.371     190.179    -131.054
  H        1.428     189.623    -128.751
  H       -0.059     188.916    -130.662
  H        0.241     190.654    -130.594
  P        3.355     192.704    -130.674
  C        3.046     195.300    -130.747
  O        3.099     194.121    -129.973
  O        2.175     192.581    -131.750
  O        4.722     192.497    -131.233
  H        1.296     192.513    -131.345
  H        2.532     196.075    -130.172
  H        2.505     195.141    -131.681
  H        4.062     195.640    -130.965
  H        1.467     188.151    -136.429
  H       -0.021     189.014    -136.122
  H        0.220     187.421    -135.446

 3  4  5  6  7  8  9  10  11  12  13  24  28  29  30  31  32 0
 6-311+G(2d,p)
 ****
 33  34 0
 6-311+G(2d,p)
 ****
 1  2  14  15  16  17  18  19  20  21  22  23  25  26  27 0
 3-21G
 ****
 35  36  37  38  39  40  41  42  43  44  45 0
 3-21G
 ****


