%nproc=1
%NoSave
%Mem=1900MB
#P OB98/GEN NMR

erre ene a

0 1
  C     -424.330      95.332    -133.760
  O     -423.657      95.864    -134.885
  H     -424.175      94.251    -133.738
  H     -425.402      95.535    -133.829
  H     -423.924      95.765    -132.842
  P     -423.789      97.445    -135.121
  C     -421.549      98.220    -134.081
  O     -422.956      98.099    -133.916
  C     -420.818      97.652    -132.865
  O     -421.260      96.311    -132.600
  C     -419.305      97.580    -133.022
  O     -418.714      98.834    -132.718
  C     -418.956      96.535    -131.974
  O     -418.913      97.148    -130.672
  C     -420.145      95.563    -132.054
  N     -418.911      90.579    -132.046
  C     -418.865      91.515    -131.074
  N     -419.153      92.831    -131.160
  C     -419.536      93.155    -132.406
  C     -419.628      92.308    -133.500
  C     -419.300      90.960    -133.285
  N     -419.345      90.007    -134.280
  N     -420.050      92.994    -134.620
  C     -420.267      94.221    -134.192
  N     -419.936      94.380    -132.870
  O     -425.177      97.956    -135.315
  O     -422.807      97.650    -136.370
  H     -419.802      97.514    -130.503
  H     -422.006      97.107    -136.266
  H     -418.550      91.160    -130.098
  H     -420.679      95.026    -134.792
  H     -420.444      95.206    -131.062
  H     -417.978      96.080    -132.143
  H     -419.012      97.210    -134.010
  H     -421.090      98.263    -131.995
  H     -421.273      99.271    -134.220
  H     -418.912      89.117    -134.087
  H     -419.511      90.321    -135.227
  H     -421.271      97.667    -134.984
  P     -417.578      99.465    -133.659
  C     -418.358     101.894    -133.964
  O     -418.330     100.585    -134.523
  O     -416.792      98.465    -134.435
  O     -416.673     100.326    -132.662
  H     -415.814     100.530    -133.083
  H     -418.883     102.553    -134.624
  H     -417.357     102.246    -133.830
  H     -418.856     101.867    -133.017

 6  7  8  9  10  11  12  13  14  15  25  28  32  33  34  35 0
 6-311+G(2d,p)
 ****
 36  39  40 0
 6-311+G(2d,p)
 ****
 1  2  3  4  5  16  17  18  19  20  21  22  23  24 0
 3-21G
 ****
 26  27  29  30  31  37  38  41  42  43  44  45  46  47 0
 3-21G
 ****
 48 0
 3-21G
 ****


