%nproc=1
%NoSave
%Mem=1900MB
#P OB98/GEN NMR

erre ene a

0 1
  C     1091.802     324.778     434.955
  O     1092.202     323.409     434.815
  P     1091.604     322.611     433.563
  C     1090.778     320.567     434.927
  O     1090.425     321.652     434.091
  C     1089.645     319.518     435.006
  O     1090.050     318.386     435.811
  C     1088.365     320.081     435.644
  O     1087.240     319.425     435.009
  C     1088.441     319.605     437.083
  O     1087.165     319.619     437.723
  C     1089.080     318.220     436.886
  N     1088.183     315.967     441.392
  C     1087.372     316.357     440.375
  N     1087.675     316.973     439.209
  C     1089.011     317.153     439.120
  C     1089.973     316.827     440.059
  C     1089.510     316.216     441.241
  N     1090.358     315.856     442.269
  N     1091.230     317.200     439.626
  C     1091.024     317.752     438.441
  N     1089.705     317.718     438.095
  O     1092.777     321.577     433.189
  O     1091.249     323.459     432.385
  H     1087.320     319.412     438.667
  H     1093.218     321.856     432.371
  H     1086.297     316.141     440.529
  H     1091.790     318.199     437.810
  H     1088.328     317.462     436.553
  H     1089.113     320.262     437.648
  H     1088.239     321.165     435.567
  H     1089.435     319.156     434.016
  H     1091.007     320.912     435.944
  H     1089.942     315.434     443.091
  H     1091.338     316.056     442.210
  H     1091.712     320.106     434.549
  P     1086.563     320.186     433.778
  C     1084.455     321.072     435.029
  O     1085.697     321.368     434.428
  O     1085.444     319.159     433.283
  O     1087.502     320.580     432.697
  H     1085.254     319.323     432.336
  H     1084.357     321.654     435.952
  H     1084.349     320.011     435.279
  H     1083.652     321.354     434.345
  H     1092.265     325.198     435.823
  H     1090.738     324.830     435.058
  H     1092.104     325.328     434.088

 3  4  5  6  7  8  9  10  11  12  22  25  29  30  31  32 0
 6-311+G(2d,p)
 ****
 33  36  37 0
 6-311+G(2d,p)
 ****
 1  2  13  14  15  16  17  18  19  20  21  23  24  26 0
 3-21G
 ****
 27  28  34  35  38  39  40  41  42  43  44  45  46  47  48 0
 3-21G
 ****


