%nproc=1
%NoSave
%Mem=1900MB
#P OB98/GEN NMR

erre ene a

0 1
  C     -326.793     322.276      33.853
  O     -327.738     321.227      33.873
  H     -327.326     323.230      33.817
  H     -326.160     322.194      32.965
  H     -326.175     322.250      34.755
  P     -327.157     319.733      33.968
  C     -327.407     317.843      32.199
  O     -327.050     319.198      32.461
  C     -328.118     317.749      30.855
  O     -329.435     318.337      30.966
  C     -327.429     318.502      29.724
  O     -326.333     317.774      29.194
  C     -328.577     318.674      28.737
  O     -328.756     317.505      27.926
  C     -329.785     318.857      29.664
  N     -332.481     322.576      27.451
  C     -332.324     321.270      27.144
  N     -331.598     320.336      27.800
  C     -331.008     320.873      28.881
  C     -331.070     322.186      29.314
  C     -331.856     323.063      28.548
  N     -331.989     324.401      28.837
  N     -330.292     322.364      30.440
  C     -329.774     321.177      30.687
  N     -330.182     320.246      29.775
  O     -328.389     318.910      34.578
  O     -325.921     319.584      34.790
  H     -327.937     317.402      27.404
  H     -328.291     318.845      35.547
  H     -332.843     320.927      26.252
  H     -329.096     320.946      31.501
  H     -330.662     318.296      29.316
  H     -328.398     319.514      28.063
  H     -327.106     319.491      30.070
  H     -328.243     316.689      30.598
  H     -328.077     317.489      32.990
  H     -326.498     317.233      32.199
  H     -332.548     324.976      28.230
  H     -331.441     324.794      29.591
  P     -324.966     318.553      28.906
  C     -324.235     320.294      27.115
  O     -325.294     319.753      27.890
  O     -324.133     317.519      28.016
  O     -324.215     318.973      30.128
  H     -323.473     317.054      28.564
  H     -324.613     321.079      26.493
  H     -323.813     319.525      26.502
  H     -323.481     320.686      27.765

 6  7  8  9  10  11  12  13  14  15  25  28  32  33  34  35 0
 6-311+G(2d,p)
 ****
 36  37  40 0
 6-311+G(2d,p)
 ****
 1  2  3  4  5  16  17  18  19  20  21  22  23  24 0
 3-21G
 ****
 26  27  29  30  31  38  39 41  42  43  44  45  46  47  48 0
 3-21G
 ****


