%nproc=1
%NoSave
%Mem=1900MB
#P OB98/GEN NMR

erre ene a

0 1
  C     -371.321     226.553    -383.570
  O     -371.064     225.366    -384.297
  H     -372.319     226.487    -383.131
  H     -371.289     227.412    -384.247
  H     -370.589     226.684    -382.766
  P     -369.545     225.108    -384.742
  C     -368.147     225.767    -386.831
  O     -369.279     226.048    -386.021
  C     -367.823     226.964    -387.728
  O     -368.796     227.072    -388.793
  C     -367.833     228.308    -387.003
  O     -366.589     228.554    -386.352
  C     -368.027     229.254    -388.175
  O     -366.783     229.413    -388.890
  C     -369.038     228.486    -389.043
  N     -373.137     231.084    -390.533
  C     -371.852     231.085    -391.044
  N     -371.620     231.903    -392.099
  N     -370.873     230.354    -390.568
  C     -371.244     229.611    -389.497
  C     -372.480     229.523    -388.895
  C     -373.554     230.326    -389.449
  O     -374.715     230.347    -389.041
  N     -372.468     228.656    -387.832
  C     -371.216     228.229    -387.776
  N     -370.433     228.780    -388.764
  O     -369.604     223.630    -385.362
  O     -368.534     225.195    -383.652
  H     -366.575     228.549    -389.297
  H     -369.241     222.999    -384.716
  H     -373.856     231.667    -390.933
  H     -370.840     227.522    -387.055
  H     -368.885     228.659    -390.113
  H     -368.344     230.252    -387.867
  H     -372.327     232.512    -392.500
  H     -368.682     228.395    -386.311
  H     -370.690     231.923    -392.484
  H     -366.845     226.783    -388.198
  H     -368.355     224.892    -387.453
  H     -367.285     225.548    -386.179
  P     -366.570     229.616    -385.146
  C     -365.659     232.031    -384.901
  O     -366.174     231.042    -385.775
  O     -365.261     229.189    -384.327
  O     -367.783     229.616    -384.268
  H     -365.517     228.810    -383.458
  H     -365.442     232.920    -385.456
  H     -364.763     231.670    -384.442
  H     -366.383     232.251    -384.145

 6  7  8  9  10  11  12  13  14  15  26  29  33  34 0
 6-311+G(2d,p)
 ****
 36  38  39  40  41 0
 6-311+G(2d,p)
 ****
 1  2  3  4  5  16  17  18  19  20  21  22  23  24  25 0
 3-21G
 ****
 27  28  30  31  32  35  37  42  43  44  45  46  47 0
 3-21G
 ****
 48  49 0
 3-21G
 ****


