%nproc=1
%NoSave
%Mem=1900MB
#P OB98/GEN NMR

erre ene a

0 1
  C       90.284     -58.017      15.030
  O       90.705     -57.319      16.185
  H       91.116     -58.056      14.323
  H       89.448     -57.491      14.562
  H       89.988     -59.038      15.287
  P       89.688     -57.307      17.431
  C       88.600     -54.960      16.994
  O       88.469     -56.370      16.977
  C       87.886     -54.371      18.211
  O       88.153     -52.948      18.264
  C       86.369     -54.561      18.189
  O       85.922     -54.803      19.524
  C       85.850     -53.219      17.703
  O       84.501     -52.992      18.109
  C       86.889     -52.255      18.291
  N       86.957     -50.995      17.554
  C       86.099     -49.973      17.974
  O       85.320     -50.164      18.909
  N       86.111     -48.778      17.302
  C       86.863     -48.637      16.254
  N       86.813     -47.435      15.618
  C       87.743     -49.705      15.743
  C       87.748     -50.840      16.439
  O       90.486     -56.412      18.491
  O       89.308     -58.663      17.923
  H       83.920     -53.571      17.568
  H       90.924     -55.641      18.097
  H       88.340     -49.544      14.857
  H       88.372     -51.674      16.138
  H       86.655     -52.029      19.339
  H       85.879     -53.184      16.606
  H       86.043     -55.374      17.542
  H       88.327     -54.807      19.116
  H       86.182     -46.736      15.989
  H       88.179     -54.528      16.081
  H       87.314     -47.233      14.766
  H       89.667     -54.719      17.027
  P       85.494     -56.286      19.951
  C       83.021     -56.185      19.229
  O       84.292     -56.774      19.005
  O       85.279     -56.506      21.410
  O       86.724     -57.176      19.422
  H       86.894     -57.875      20.083
  H       82.312     -56.592      18.539
  H       83.089     -55.127      19.088
  H       82.703     -56.392      20.230

 6  7  8  9  10  11  12  13  14  15  16  26  30  31  32  33  35 0
 6-311+G(2d,p)
 ****
 37  38 0
 6-311+G(2d,p)
 ****
 1  2  3  4  5  17  18  19  20  21  22  23  24  25 0
 3-21G
 ****
 27  28  29  34  36  39  40  41  42  43  44  45  46 0
 3-21G
 ****


