%nproc=1
%NoSave
%Mem=1900MB
#P OB98/GEN NMR

erre ene a

0 1
  C     -112.993      91.990     127.182
  O     -111.677      91.994     126.663
  P     -111.487      91.964     125.066
  C     -111.179      94.569     124.843
  O     -111.929      93.410     124.527
  C     -110.970      95.431     123.596
  O     -112.264      95.707     122.988
  C     -110.292      96.786     123.858
  O     -109.460      97.072     122.722
  C     -111.467      97.749     123.925
  O     -111.083      99.094     123.664
  C     -112.386      97.139     122.852
  N     -113.783      97.551     122.996
  C     -114.247      98.578     122.174
  O     -113.547      99.171     121.357
  N     -115.567      98.932     122.344
  C     -116.422      98.417     123.277
  O     -117.590      98.782     123.401
  C     -115.866      97.371     124.150
  C     -114.599      96.985     123.966
  O     -112.683      91.000     124.629
  O     -110.129      91.526     124.629
  H     -113.482      91.108     125.178
  H     -111.897      99.633     123.609
  H     -115.936      99.646     121.736
  H     -116.512      96.950     124.913
  H     -114.167      96.216     124.595
  H     -112.029      97.400     121.851
  H     -111.916      97.699     124.915
  H     -109.683      96.769     124.766
  H     -110.389      94.847     122.866
  H     -110.198      94.269     125.235
  H     -111.696      95.138     125.627
  P     -108.157      97.996     122.939
  C     -106.581      95.947     122.522
  O     -106.952      97.026     123.349
  O     -108.544      98.697     124.332
  O     -107.893      98.988     121.855
  H     -108.850      98.066     125.005
  H     -105.562      95.632     122.779
  H     -106.597      96.228     121.463
  H     -107.264      95.108     122.684
  H     -112.955      92.012     128.251
  H     -113.500      91.104     126.861
  H     -113.519      92.851     126.826

 3  4  5  6  7  8  9  10  11  12  13  24  28  29  30  31  32 0
 6-311+G(2d,p)
 ****
 33  34 0
 6-311+G(2d,p)
 ****
 1  2  14  15  16  17  18  19  20  21  22  23  25  26  27 0
 3-21G
 ****
 35  36  37  38  39  40  41  42  43  44  45 0
 3-21G
 ****


