%nproc=1
%NoSave
%Mem=1900MB
#P OB98/GEN NMR

erre ene a

0 1
  C     -151.363     -34.443      78.653
  O     -150.113     -33.947      79.125
  P     -149.892     -33.169      80.502
  C     -149.626     -30.691      79.655
  O     -150.412     -31.664      80.328
  C     -149.992     -29.269      80.114
  O     -151.282     -28.909      79.532
  C     -150.140     -29.165      81.638
  O     -149.565     -27.978      82.188
  C     -151.631     -29.376      81.853
  O     -152.097     -28.897      83.106
  C     -152.227     -28.710      80.612
  N     -157.271     -28.529      81.401
  C     -156.254     -27.918      82.106
  N     -156.618     -27.172      83.174
  N     -154.987     -28.041      81.806
  C     -154.755     -28.874      80.768
  C     -155.680     -29.553      79.995
  C     -157.081     -29.372      80.306
  O     -158.026     -29.872      79.705
  N     -155.065     -30.300      79.024
  C     -153.778     -30.095      79.211
  N     -153.536     -29.226      80.259
  O     -148.555     -33.350      81.146
  O     -150.994     -33.819      81.488
  H     -152.955     -29.321      83.286
  H     -150.609     -33.796      82.385
  H     -158.233     -28.379      81.663
  H     -152.980     -30.531      78.618
  H     -152.357     -27.633      80.744
  H     -151.818     -30.461      81.833
  H     -157.557     -27.133      83.533
  H     -149.587     -29.967      82.139
  H     -155.862     -26.913      83.813
  H     -149.239     -28.569      79.730
  H     -149.848     -30.807      78.586
  H     -148.561     -30.889      79.793
  P     -148.034     -27.664      82.502
  C     -148.384     -27.494      85.038
  O     -147.701     -28.161      83.989
  O     -147.952     -26.069      82.629
  O     -147.069     -28.145      81.460
  H     -147.356     -25.711      81.939
  H     -147.886     -27.733      85.981
  H     -149.418     -27.849      85.085
  H     -148.366     -26.411      84.889
  H     -151.222     -34.921      77.706
  H     -152.051     -33.631      78.544
  H     -151.754     -35.150      79.355

 3  4  5  6  7  8  9  10  11  12  23  26  30  31 0
 6-311+G(2d,p)
 ****
 33  35  36  37  38 0
 6-311+G(2d,p)
 ****
 1  2  13  14  15  16  17  18  19  20  21  22  24  25 0
 3-21G
 ****
 27  28  29  32  34  39  40  41  42  43  44  45  46  47  48  49 0
 3-21G
 ****


