%nproc=1
%NoSave
%Mem=1900MB
#P OB98/GEN NMR

erre ene a

0 1
  C      859.495     540.096    -347.569
  O      858.689     541.239    -347.344
  H      859.936     539.784    -346.621
  H      860.306     540.342    -348.261
  H      858.901     539.269    -347.968
  P      857.786     541.792    -348.545
  C      855.619     541.031    -347.362
  O      856.422     540.940    -348.528
  C      854.142     540.820    -347.710
  O      853.661     541.975    -348.455
  C      853.868     539.570    -348.580
  O      852.552     539.099    -348.245
  C      853.904     540.179    -349.972
  O      853.418     539.313    -350.959
  C      853.103     541.474    -349.688
  N      853.173     542.481    -350.747
  C      852.050     542.665    -351.540
  O      851.001     542.042    -351.417
  N      852.162     543.623    -352.526
  C      853.260     544.395    -352.758
  O      853.293     545.256    -353.626
  C      854.417     544.150    -351.886
  C      854.330     543.221    -350.938
  O      858.457     541.879    -349.871
  O      857.310     543.231    -348.024
  H      857.842     543.926    -348.454
  H      853.914     538.473    -350.924
  H      851.355     543.768    -353.096
  H      855.317     544.739    -352.060
  H      855.158     543.024    -350.273
  H      852.049     541.219    -349.497
  H      854.926     540.412    -350.257
  H      854.592     538.770    -348.419
  H      853.562     540.783    -346.772
  H      855.747     542.031    -346.923
  H      855.948     540.282    -346.633
  P      852.272     537.681    -347.559
  C      851.312     538.294    -345.228
  O      852.446     537.855    -345.955
  O      853.079     536.562    -348.128
  O      850.693     537.420    -347.747
  H      850.531     536.460    -347.730
  H      851.560     538.366    -344.190
  H      850.513     537.594    -345.356
  H      851.006     539.254    -345.589

 6  7  8  9  10  11  12  13  14  15  16  27  31  32  33  34  35 0
 6-311+G(2d,p)
 ****
 36  37 0
 6-311+G(2d,p)
 ****
 1  2  3  4  5  17  18  19  20  21  22  23  24  25 0
 3-21G
 ****
 26  28  29  30  38  39  40  41  42  43  44  45 0
 3-21G
 ****


