%nproc=1
%NoSave
%Mem=1900MB
#P OB98/GEN NMR

erre ene a

0 1
  C      455.056    -339.680    -124.468
  O      456.452    -339.591    -124.282
  P      457.188    -338.167    -124.352
  C      457.214    -336.243    -126.065
  O      457.014    -337.644    -125.858
  C      457.661    -335.992    -127.506
  O      456.718    -336.542    -128.452
  C      457.751    -334.511    -127.873
  O      458.728    -333.741    -127.220
  C      457.823    -334.593    -129.389
  O      459.149    -334.884    -129.829
  C      456.880    -335.789    -129.682
  N      455.588    -335.343    -130.224
  C      455.447    -335.426    -131.598
  O      456.321    -335.849    -132.349
  N      454.253    -334.983    -132.104
  C      453.233    -334.434    -131.382
  O      452.207    -334.016    -131.906
  C      453.457    -334.345    -129.931
  C      454.606    -334.803    -129.415
  O      458.596    -338.159    -123.857
  O      456.206    -337.199    -123.540
  H      459.687    -334.085    -129.689
  H      455.306    -337.130    -123.905
  H      454.132    -335.030    -133.103
  H      452.661    -333.926    -129.326
  H      454.786    -334.756    -128.349
  H      457.336    -336.462    -130.415
  H      457.529    -333.645    -129.858
  H      456.788    -334.048    -127.622
  H      458.619    -336.501    -127.661
  H      457.995    -335.894    -125.376
  H      456.289    -335.710    -125.835
  P      458.793    -332.141    -127.317
  C      459.605    -330.384    -129.041
  O      459.398    -331.749    -128.746
  O      459.335    -331.418    -126.125
  O      457.249    -331.758    -127.494
  H      457.084    -330.895    -127.097
  H      459.979    -330.298    -130.071
  H      460.355    -329.953    -128.375
  H      458.668    -329.824    -128.959
  H      454.750    -340.702    -124.386
  H      454.801    -339.308    -125.438
  H      454.559    -339.098    -123.720

 3  4  5  6  7  8  9  10  11  12  13  23  28  29  30  31  32 0
 6-311+G(2d,p)
 ****
 33  34 0
 6-311+G(2d,p)
 ****
 1  2  14  15  16  17  18  19  20  21  22  24  25  26  27 0
 3-21G
 ****
 35  36  37  38  39  40  41  42  43  44  45 0
 3-21G
 ****


