%nproc=1
%NoSave
%Mem=1900MB
#P OB98/GEN NMR

erre ene a

0 1
  C       31.502     -10.267    -116.235
  O       30.130      -9.950    -116.116
  H       31.631     -11.173    -116.834
  H       32.014      -9.440    -116.736
  H       31.945     -10.410    -115.245
  P       29.189     -11.059    -115.436
  C       28.580     -11.714    -117.880
  O       28.942     -12.159    -116.580
  C       27.672     -12.751    -118.532
  O       28.439     -13.920    -118.902
  C       26.560     -13.255    -117.619
  O       25.445     -12.382    -117.586
  C       26.211     -14.568    -118.299
  O       25.419     -14.313    -119.473
  C       27.601     -15.090    -118.696
  N       27.811     -19.829    -116.768
  C       27.143     -19.313    -117.823
  N       27.156     -18.045    -118.284
  C       27.972     -17.279    -117.543
  C       28.724     -17.665    -116.445
  C       28.619     -19.011    -116.053
  N       29.275     -19.534    -114.961
  N       29.424     -16.591    -115.932
  C       29.113     -15.580    -116.719
  N       28.213     -15.939    -117.687
  O       27.767     -10.334    -115.321
  O       29.670     -11.615    -114.137
  H       26.023     -13.958    -120.153
  H       27.179     -10.831    -114.722
  H       26.510     -20.009    -118.365
  H       29.500     -14.574    -116.624
  H       27.586     -15.658    -119.633
  H       25.629     -15.235    -117.657
  H       26.932     -13.463    -116.610
  H       27.261     -12.318    -119.453
  H       29.487     -11.589    -118.480
  H       29.021     -20.466    -114.675
  H       29.758     -18.904    -114.338
  H       28.063     -10.753    -117.804
  P       24.791     -12.070    -116.151
  C       22.806     -13.701    -116.540
  O       23.941     -13.371    -115.749
  O       23.665     -10.988    -116.499
  O       25.753     -11.577    -115.122
  H       23.542     -10.363    -115.758
  H       22.346     -14.586    -116.152
  H       23.113     -13.872    -117.551
  H       22.105     -12.893    -116.513

 6  7  8  9  10  11  12  13  14  15  25  28  32  33  34  35 0
 6-311+G(2d,p)
 ****
 36  39  40 0
 6-311+G(2d,p)
 ****
 1  2  3  4  5  16  17  18  19  20  21  22  23  24 0
 3-21G
 ****
 26  27  29  30  31  37  38  41  42  43  44  45  46  47 0
 3-21G
 ****
 48 0
 3-21G
 ****


