%nproc=1
%NoSave
%Mem=1900MB
#P OB98/GEN NMR

erre ene a

0 1
  C     -298.800     267.841    -109.225
  O     -299.452     268.995    -109.721
  P     -299.579     269.241    -111.303
  C     -297.963     269.006    -113.303
  O     -298.093     269.013    -111.888
  C     -296.647     268.352    -113.725
  O     -296.625     266.965    -113.336
  C     -296.402     268.364    -115.227
  O     -295.974     269.651    -115.651
  C     -295.349     267.275    -115.362
  O     -294.033     267.771    -115.066
  C     -295.802     266.255    -114.291
  N     -296.504     265.115    -114.869
  C     -295.693     264.101    -115.391
  O     -294.465     264.221    -115.388
  N     -296.298     263.009    -115.970
  C     -297.595     262.937    -116.027
  N     -298.129     261.838    -116.609
  C     -298.478     264.003    -115.504
  C     -297.876     265.050    -114.946
  O     -300.235     270.515    -111.702
  O     -300.357     267.936    -111.812
  H     -293.981     268.657    -115.486
  H     -301.316     267.967    -111.569
  H     -299.554     263.909    -115.584
  H     -298.452     265.876    -114.546
  H     -294.940     265.877    -113.729
  H     -295.314     266.856    -116.375
  H     -297.313     268.070    -115.758
  H     -295.826     268.869    -113.203
  H     -297.483     261.149    -116.977
  H     -297.981     270.040    -113.661
  H     -299.120     261.703    -116.740
  H     -298.819     268.476    -113.742
  P     -296.328     270.164    -117.122
  C     -296.376     268.932    -119.371
  O     -295.663     269.157    -118.171
  O     -296.073     271.614    -117.377
  O     -297.897     269.842    -117.260
  H     -298.345     270.607    -117.665
  H     -295.687     268.520    -120.114
  H     -296.797     269.862    -119.755
  H     -297.178     268.211    -119.191
  H     -298.816     267.854    -108.155
  H     -297.786     267.830    -109.566
  H     -299.305     266.966    -109.579

 3  4  5  6  7  8  9  10  11  12  13  23  27  28  29  30  32 0
 6-311+G(2d,p)
 ****
 34  35 0
 6-311+G(2d,p)
 ****
 1  2  14  15  16  17  18  19  20  21  22  24  25  26 0
 3-21G
 ****
 31  33  36  37  38  39  40  41  42  43  44  45  46 0
 3-21G
 ****


