%nproc=1
%NoSave
%Mem=1900MB
#P OB98/GEN NMR

erre ene a

0 1
  C      288.676    -133.125    -250.964
  O      287.873    -132.034    -250.545
  P      288.302    -131.254    -249.209
  C      286.557    -130.115    -247.640
  O      287.039    -131.320    -248.213
  C      285.068    -129.935    -247.948
  O      284.921    -129.584    -249.350
  C      284.204    -131.177    -247.702
  O      282.914    -130.718    -247.290
  C      284.107    -131.805    -249.078
  O      282.992    -132.685    -249.208
  C      284.044    -130.559    -249.952
  N      282.860    -132.912    -254.276
  C      282.229    -132.949    -253.045
  N      281.084    -133.668    -252.981
  N      282.673    -132.335    -251.977
  C      283.817    -131.643    -252.201
  C      284.556    -131.565    -253.358
  C      284.036    -132.220    -254.540
  O      284.515    -132.141    -255.669
  N      285.706    -130.844    -253.174
  C      285.618    -130.418    -251.925
  N      284.470    -130.838    -251.314
  O      288.336    -129.728    -249.678
  O      289.590    -131.694    -248.585
  H      282.885    -132.892    -250.156
  H      289.238    -129.464    -249.946
  H      282.464    -133.394    -255.065
  H      286.347    -129.803    -251.420
  H      283.035    -130.128    -250.002
  H      285.016    -132.387    -249.286
  H      280.670    -134.141    -253.772
  H      284.621    -131.860    -246.954
  H      280.583    -133.680    -252.100
  H      284.694    -129.090    -247.358
  H      287.107    -129.270    -248.076
  H      286.735    -130.122    -246.562
  P      282.230    -131.435    -246.029
  C      280.074    -132.833    -246.342
  O      281.469    -132.735    -246.562
  O      281.030    -130.431    -245.662
  O      283.133    -131.632    -244.853
  H      280.868    -130.446    -244.700
  H      279.652    -133.529    -247.074
  H      279.577    -131.868    -246.447
  H      279.892    -133.229    -245.336
  H      288.270    -133.543    -251.862
  H      288.691    -133.872    -250.198
  H      289.673    -132.784    -251.149

 3  4  5  6  7  8  9  10  11  12  23  26  30  31 0
 6-311+G(2d,p)
 ****
 33  35  36  37  38 0
 6-311+G(2d,p)
 ****
 1  2  13  14  15  16  17  18  19  20  21  22  24  25 0
 3-21G
 ****
 27  28  29  32  34  39  40  41  42  43  44  45  46  47  48  49 0
 3-21G
 ****


