%nproc=1
%NoSave
%Mem=1900MB
#P OB98/GEN NMR

erre ene a

0 1
  C     -368.827     127.990    -214.712
  O     -370.233     128.017    -214.527
  P     -370.809     128.909    -213.322
  C     -372.477     128.389    -211.400
  O     -371.453     127.898    -212.256
  C     -373.594     127.355    -211.243
  O     -374.340     127.275    -212.489
  C     -373.109     125.935    -210.905
  O     -374.099     125.355    -210.047
  C     -373.107     125.268    -212.270
  O     -373.071     123.854    -212.220
  C     -374.366     125.882    -212.877
  N     -375.767     122.848    -216.745
  C     -375.913     122.723    -215.407
  N     -375.521     123.578    -214.437
  C     -374.933     124.662    -214.971
  C     -374.698     124.919    -216.311
  C     -375.147     123.951    -217.224
  N     -374.990     124.075    -218.591
  N     -374.041     126.121    -216.473
  C     -373.882     126.586    -215.250
  N     -374.422     125.748    -214.312
  O     -372.087     129.615    -213.977
  O     -369.846     129.906    -212.759
  H     -372.766     123.496    -213.079
  H     -372.177     130.538    -213.670
  H     -376.409     121.819    -215.068
  H     -373.376     127.504    -214.991
  H     -375.281     125.436    -212.462
  H     -372.216     125.593    -212.821
  H     -372.140     125.919    -210.400
  H     -374.285     127.711    -210.470
  H     -372.907     129.295    -211.834
  H     -375.164     123.245    -219.138
  H     -374.348     124.792    -218.915
  H     -372.043     128.650    -210.430
  P     -373.717     124.044    -209.202
  C     -375.028     121.873    -208.790
  O     -374.797     122.952    -209.672
  O     -374.274     124.445    -207.754
  O     -372.282     123.644    -209.229
  H     -375.195     124.756    -207.798
  H     -375.848     121.266    -209.184
  H     -375.306     122.244    -207.798
  H     -374.131     121.250    -208.717
  H     -368.589     127.361    -215.544
  H     -368.358     127.607    -213.830
  H     -368.473     128.982    -214.902

 3  4  5  6  7  8  9  10  11  12  22  25  29  30  31  32 0
 6-311+G(2d,p)
 ****
 33  36  37 0
 6-311+G(2d,p)
 ****
 1  2  13  14  15  16  17  18  19  20  21  23  24  26 0
 3-21G
 ****
 27  28  34  35  38  39  40  41  42  43  44  45  46  47  48 0
 3-21G
 ****


