%nproc=1
%NoSave
%Mem=1900MB
#P OB98/GEN NMR

erre ene a

0 1
  C     -412.246     166.191    -356.795
  O     -413.332     166.179    -357.693
  H     -411.862     167.209    -356.718
  H     -411.448     165.542    -357.168
  H     -412.561     165.859    -355.802
  P     -414.159     164.810    -357.838
  C     -414.858     164.751    -360.340
  O     -415.241     165.048    -359.003
  C     -415.971     165.153    -361.314
  O     -417.150     164.356    -361.027
  C     -416.365     166.627    -361.222
  O     -416.641     167.110    -362.538
  C     -417.649     166.611    -360.409
  O     -418.484     167.741    -360.664
  C     -418.255     165.258    -360.821
  N     -419.186     164.760    -359.810
  C     -420.461     165.334    -359.800
  O     -420.751     166.221    -360.600
  N     -421.350     164.933    -358.836
  C     -420.980     164.093    -357.917
  N     -421.901     163.761    -356.974
  C     -419.619     163.514    -357.859
  C     -418.785     163.884    -358.828
  O     -415.054     164.773    -356.512
  O     -413.331     163.577    -358.003
  H     -418.017     168.546    -360.345
  H     -415.212     163.854    -356.218
  H     -419.350     162.847    -357.059
  H     -417.767     163.515    -358.867
  H     -418.785     165.352    -361.775
  H     -417.404     166.603    -359.341
  H     -415.595     167.253    -360.760
  H     -415.647     164.894    -362.333
  H     -422.815     164.186    -357.044
  H     -414.682     163.673    -360.425
  H     -421.704     163.153    -356.188
  H     -413.929     165.283    -360.575
  P     -415.516     168.040    -363.213
  C     -417.116     169.591    -364.555
  O     -416.106     168.592    -364.604
  O     -414.394     166.994    -363.657
  O     -414.974     169.084    -362.294
  H     -413.609     167.086    -363.089
  H     -417.405     169.855    -365.551
  H     -416.737     170.457    -364.052
  H     -417.965     169.214    -364.025

 6  7  8  9  10  11  12  13  14  15  16  26  30  31  32  33  35 0
 6-311+G(2d,p)
 ****
 37  38 0
 6-311+G(2d,p)
 ****
 1  2  3  4  5  17  18  19  20  21  22  23  24  25 0
 3-21G
 ****
 27  28  29  34  36  39  40  41  42  43  44  45  46 0
 3-21G
 ****


