%nproc=1
%NoSave
%Mem=1900MB
#P OB98/GEN NMR

erre ene a

0 1
  C     -173.397     306.427      30.643
  O     -172.191     306.688      29.946
  P     -170.904     305.753      30.148
  C     -169.917     307.408      31.856
  O     -170.338     306.064      31.616
  C     -168.458     307.595      31.462
  O     -168.158     309.012      31.424
  C     -167.480     306.948      32.442
  O     -166.366     306.431      31.710
  C     -166.988     308.098      33.299
  O     -165.687     307.832      33.841
  C     -167.049     309.267      32.306
  N     -164.797     313.340      34.485
  C     -164.275     312.235      33.903
  N     -164.933     311.178      33.362
  C     -166.262     311.370      33.429
  C     -166.933     312.445      33.998
  C     -166.144     313.466      34.553
  N     -166.668     314.596      35.146
  N     -168.308     312.275      33.903
  C     -168.456     311.129      33.276
  N     -167.252     310.546      32.955
  O     -169.889     305.829      29.059
  O     -171.508     304.278      30.302
  H     -165.397     308.638      34.320
  H     -170.933     303.631      29.852
  H     -163.195     312.183      33.858
  H     -169.403     310.665      33.029
  H     -166.135     309.329      31.698
  H     -167.679     308.255      34.140
  H     -167.935     306.152      33.037
  H     -168.314     307.199      30.451
  H     -170.037     307.619      32.923
  H     -166.022     315.326      35.399
  H     -167.663     314.774      35.029
  H     -170.556     308.098      31.293
  P     -165.509     305.279      32.439
  C     -163.507     306.889      32.905
  O     -164.527     306.068      33.437
  O     -164.879     304.343      31.471
  O     -166.625     304.619      33.384
  H     -167.346     305.251      33.581
  H     -162.931     307.309      33.733
  H     -163.945     307.711      32.329
  H     -162.841     306.300      32.270
  H     -174.130     307.158      30.373
  H     -173.217     306.474      31.697
  H     -173.754     305.452      30.385

 3  4  5  6  7  8  9  10  11  12  22  25  29  30  31  32 0
 6-311+G(2d,p)
 ****
 33  36  37 0
 6-311+G(2d,p)
 ****
 1  2  13  14  15  16  17  18  19  20  21  23  24  26 0
 3-21G
 ****
 27  28  34  35  38  39  40  41  42  43  44  45  46  47  48 0
 3-21G
 ****


