%nproc=1
%NoSave
%Mem=1900MB
#P OB98/GEN NMR

erre ene a

0 1
  C     -290.795    -508.868     581.462
  O     -291.953    -509.398     580.852
  H     -290.965    -508.799     582.541
  H     -290.589    -507.868     581.073
  H     -289.937    -509.523     581.281
  P     -291.913    -509.579     579.259
  C     -293.364    -507.672     578.264
  O     -292.064    -508.102     578.637
  C     -293.332    -506.998     576.891
  O     -292.887    -507.969     575.902
  C     -294.694    -506.458     576.432
  O     -294.489    -505.227     575.732
  C     -295.165    -507.511     575.445
  O     -296.117    -506.997     574.521
  C     -293.837    -507.929     574.821
  N     -294.853    -510.119     570.406
  C     -294.796    -508.783     570.750
  N     -295.058    -507.888     569.773
  N     -294.516    -508.361     571.957
  C     -294.253    -509.363     572.828
  C     -294.285    -510.720     572.614
  C     -294.620    -511.176     571.282
  O     -294.707    -512.345     570.919
  N     -293.993    -511.408     573.767
  C     -293.786    -510.469     574.672
  N     -293.928    -509.212     574.148
  O     -293.324    -510.261     578.925
  O     -290.765    -510.370     578.728
  H     -295.683    -506.283     574.009
  H     -293.254    -510.833     578.136
  H     -295.087    -510.390     569.468
  H     -293.532    -510.644     575.709
  H     -293.481    -507.204     574.074
  H     -295.624    -508.351     575.981
  H     -295.251    -508.139     568.816
  H     -295.400    -506.304     577.248
  H     -295.008    -506.900     570.005
  H     -292.578    -506.203     576.912
  H     -293.730    -506.957     579.010
  H     -294.036    -508.535     578.235
  P     -294.404    -503.885     576.605
  C     -296.782    -503.604     577.609
  O     -295.436    -504.000     577.828
  O     -295.085    -502.792     575.644
  O     -293.013    -503.487     576.971
  H     -294.405    -502.192     575.298
  H     -297.344    -503.737     578.510
  H     -297.208    -504.203     576.831
  H     -296.808    -502.574     577.321

 6  7  8  9  10  11  12  13  14  15  26  29  33  34 0
 6-311+G(2d,p)
 ****
 36  38  39  40  41 0
 6-311+G(2d,p)
 ****
 1  2  3  4  5  16  17  18  19  20  21  22  23  24  25 0
 3-21G
 ****
 27  28  30  31  32  35  37  42  43  44  45  46  47 0
 3-21G
 ****
 48  49 0
 3-21G
 ****


