%nproc=1
%NoSave
%Mem=1900MB
#P OB98/GEN NMR

erre ene a

0 1
  C       15.838     220.838     441.822
  O       15.710     219.538     441.275
  H       16.884     221.146     441.754
  H       15.540     220.827     442.873
  H       15.222     221.549     441.266
  P       14.218     218.998     441.066
  C       14.163     219.289     438.460
  O       13.645     219.678     439.724
  C       13.025     219.103     437.462
  O       12.132     218.056     437.894
  C       12.116     220.313     437.320
  O       12.726     221.371     436.614
  C       10.933     219.695     436.585
  O       11.158     219.649     435.171
  C       10.889     218.266     437.178
  N        9.727     218.070     438.025
  C        8.491     218.111     437.363
  O        8.449     218.281     436.145
  N        7.346     217.995     438.106
  C        7.422     217.879     439.395
  N        6.245     217.802     440.076
  C        8.702     217.836     440.130
  C        9.804     217.936     439.390
  O       13.414     219.748     442.228
  O       14.082     217.512     441.090
  H       10.364     219.232     434.780
  H       13.583     220.703     442.267
  H        8.712     217.722     441.203
  H       10.787     217.913     439.847
  H       10.862     217.517     436.378
  H       10.016     220.265     436.746
  H       11.767     220.642     438.309
  H       13.459     218.815     436.496
  H        5.392     217.893     439.539
  H       14.743     218.365     438.550
  H        6.180     217.789     441.084
  H       14.843     220.075     438.121
  P       11.953     222.746     436.344
  C       12.899     224.435     438.045
  O       11.856     223.508     437.758
  O       10.651     222.619     435.628
  O       13.042     223.626     435.568
  H       13.867     223.787     436.060
  H       12.729     224.877     439.005
  H       12.912     225.200     437.297
  H       13.839     223.924     438.049

 6  7  8  9  10  11  12  13  14  15  16  26  30  31  32  33  35 0
 6-311+G(2d,p)
 ****
 37  38 0
 6-311+G(2d,p)
 ****
 1  2  3  4  5  17  18  19  20  21  22  23  24  25 0
 3-21G
 ****
 27  28  29  34  36  39  40  41  42  43  44  45  46 0
 3-21G
 ****


