%nproc=1
%NoSave
%Mem=1900MB
#P OB98/GEN NMR

erre ene a

0 1
  C      724.405    -893.200    -962.660
  O      724.236    -892.970    -961.280
  H      724.647    -892.260    -963.175
  H      725.235    -893.900    -962.801
  H      723.505    -893.640    -963.093
  P      723.066    -891.950    -960.873
  C      721.625    -893.620    -959.510
  O      721.728    -892.830    -960.681
  C      720.758    -894.840    -959.770
  O      719.463    -894.390    -960.270
  C      721.340    -895.820    -960.808
  O      721.327    -897.150    -960.298
  C      720.387    -895.750    -961.996
  O      720.229    -896.980    -962.661
  C      719.084    -895.270    -961.330
  N      717.171    -895.530    -966.047
  C      717.700    -896.480    -965.243
  N      718.109    -896.360    -963.963
  C      717.882    -895.130    -963.503
  C      717.337    -894.050    -964.184
  C      716.978    -894.290    -965.538
  N      716.500    -893.300    -966.367
  N      717.275    -892.920    -963.393
  C      717.826    -893.300    -962.244
  N      718.215    -894.610    -962.271
  O      722.801    -891.140    -962.229
  O      723.406    -891.030    -959.748
  H      719.648    -896.840    -963.428
  H      722.981    -890.190    -962.074
  H      717.811    -897.470    -965.706
  H      718.005    -892.650    -961.391
  H      718.538    -896.110    -960.879
  H      720.769    -894.990    -962.692
  H      722.368    -895.550    -961.108
  H      720.575    -895.340    -958.821
  H      721.169    -893.010    -958.702
  H      716.387    -893.520    -967.345
  H      716.473    -892.350    -966.021
  H      722.635    -893.920    -959.192
  P      722.626    -897.610    -959.460
  C      721.346    -899.140    -957.761
  O      722.149    -897.970    -957.947
  O      723.450    -896.260    -959.284
  O      723.426    -898.670    -960.127
  H      724.347    -896.360    -959.639
  H      721.110    -899.249    -956.723
  H      721.886    -900.000    -958.096
  H      720.441    -899.045    -958.325

 6  7  8  9  10  11  12  13  14  15  25  28  32  33  34  35 0
 6-311+G(2d,p)
 ****
 36  39  40 0
 6-311+G(2d,p)
 ****
 1  2  3  4  5  16  17  18  19  20  21  22  23  24 0
 3-21G
 ****
 26  27  29  30  31  37  38  41  42  43  44  45  46  47  48 0
 3-21G
 ****


