%nproc=1
%NoSave
%Mem=1900MB
#P OB98/GEN NMR

erre ene a

0 1
  C      -35.179     -60.510     -33.688
  O      -33.894     -61.044     -33.371
  P      -33.207     -60.608     -31.990
  C      -33.755     -62.892     -30.921
  O      -32.742     -61.933     -31.209
  C      -33.369     -64.271     -31.485
  O      -33.538     -64.251     -32.928
  C      -31.912     -64.682     -31.244
  O      -31.598     -65.383     -30.045
  C      -31.687     -65.664     -32.393
  O      -32.185     -66.965     -32.027
  C      -32.530     -65.092     -33.528
  N      -31.134     -64.746     -38.437
  C      -31.930     -65.619     -37.786
  N      -32.251     -65.643     -36.474
  C      -31.668     -64.624     -35.823
  C      -30.834     -63.654     -36.355
  C      -30.565     -63.740     -37.731
  N      -29.744     -62.858     -38.395
  N      -30.420     -62.775     -35.376
  C      -30.980     -63.220     -34.268
  N      -31.755     -64.326     -34.488
  O      -33.955     -59.611     -31.174
  O      -31.804     -60.001     -32.483
  H      -33.078     -66.827     -31.661
  H      -31.579     -59.233     -31.922
  H      -32.366     -66.406     -38.395
  H      -30.854     -62.776     -33.292
  H      -33.054     -65.873     -34.094
  H      -30.627     -65.791     -32.630
  H      -31.241     -63.823     -31.355
  H      -34.045     -65.030     -31.073
  H      -34.701     -62.569     -31.359
  H      -29.568     -63.015     -39.374
  H      -29.266     -62.137     -37.874
  H      -33.895     -62.907     -29.841
  P      -30.498     -64.832     -29.018
  C      -31.148     -66.675     -27.279
  O      -30.144     -66.067     -28.061
  O      -30.874     -63.581     -28.301
  O      -29.197     -64.705     -29.938
  H      -28.831     -65.553     -30.236
  H      -30.759     -67.613     -26.874
  H      -32.034     -66.892     -27.881
  H      -31.417     -66.017     -26.447
  H      -35.501     -60.892     -34.634
  H      -35.120     -59.443     -33.736
  H      -35.880     -60.794     -32.931

 3  4  5  6  7  8  9  10  11  12  22  25  29  30  31  32 0
 6-311+G(2d,p)
 ****
 33  36  37 0
 6-311+G(2d,p)
 ****
 1  2  13  14  15  16  17  18  19  20  21  23  24  26 0
 3-21G
 ****
 27  28  34  35  38  39  40  41  42  43  44  45  46  47  48 0
 3-21G
 ****


