%nproc=1
%NoSave
%Mem=1900MB
#P OB98/GEN NMR

erre ene a

0 1
  C      109.935    -323.473      51.673
  O      110.713    -324.556      52.134
  H      109.010    -323.433      52.256
  H      109.681    -323.628      50.622
  H      110.462    -322.522      51.786
  P      112.276    -324.580      51.795
  C      112.523    -326.996      52.682
  O      112.717    -326.113      51.583
  C      112.083    -328.385      52.219
  O      110.728    -328.321      51.719
  C      112.948    -328.927      51.078
  O      114.115    -329.619      51.505
  C      111.978    -329.872      50.370
  O      112.018    -331.191      50.942
  C      110.607    -329.223      50.610
  N      108.195    -329.519      46.109
  C      108.666    -330.547      46.910
  N      108.503    -331.795      46.426
  N      109.255    -330.347      48.061
  C      109.436    -329.043      48.365
  C      109.029    -327.941      47.640
  C      108.308    -328.169      46.401
  O      107.854    -327.296      45.669
  N      109.423    -326.765      48.244
  C      110.137    -327.165      49.278
  N      110.108    -328.533      49.436
  O      112.967    -324.215      53.197
  O      112.719    -323.630      50.724
  H      111.388    -331.755      50.448
  H      113.799    -323.735      53.034
  H      107.723    -329.732      45.250
  H      110.660    -326.507      49.963
  H      109.855    -329.976      50.883
  H      112.245    -329.982      49.312
  H      108.135    -331.999      45.511
  H      113.213    -328.127      50.382
  H      109.002    -332.561      46.892
  H      112.073    -329.067      53.078
  H      111.751    -326.544      53.307
  H      113.432    -327.065      53.280
  P      115.499    -329.440      50.728
  C      116.151    -331.954      51.106
  O      115.978    -330.874      50.215
  O      116.533    -329.103      51.899
  O      115.508    -328.395      49.658
  H      116.688    -328.142      51.955
  H      116.474    -332.817      50.562
  H      115.223    -332.166      51.594
  H      116.888    -331.698      51.838

 6  7  8  9  10  11  12  13  14  15  26  29  33  34 0
 6-311+G(2d,p)
 ****
 36  38  39  40  41 0
 6-311+G(2d,p)
 ****
 1  2  3  4  5  16  17  18  19  20  21  22  23  24  25 0
 3-21G
 ****
 27  28  30  31  32  35  37  42  43  44  45  46  47 0
 3-21G
 ****
 48  49 0
 3-21G
 ****


