%nproc=1
%NoSave
%Mem=1900MB
#P OB98/GEN NMR

erre ene a

0 1
  C       77.769     -30.299    -306.318
  O       78.878     -30.006    -307.171
  P       78.562     -29.317    -308.585
  C       78.172     -31.643    -309.692
  O       77.676     -30.328    -309.456
  C       77.280     -32.368    -310.702
  O       76.884     -31.490    -311.771
  C       77.977     -33.536    -311.380
  O       78.014     -34.660    -310.523
  C       77.116     -33.738    -312.622
  O       76.039     -34.659    -312.380
  C       76.571     -32.320    -312.906
  N       77.094     -31.749    -314.136
  C       76.791     -32.449    -315.310
  O       76.134     -33.492    -315.260
  N       77.258     -31.961    -316.502
  C       77.986     -30.886    -316.518
  N       78.425     -30.454    -317.731
  C       78.353     -30.137    -315.300
  C       77.878     -30.622    -314.154
  O       79.979     -29.332    -309.327
  O       78.012     -27.932    -308.473
  H       75.615     -34.357    -311.552
  H       80.067     -28.551    -309.904
  H       78.969     -29.253    -315.362
  H       78.099     -30.136    -313.207
  H       75.477     -32.340    -312.981
  H       77.700     -34.149    -313.452
  H       78.992     -33.246    -311.678
  H       76.379     -32.719    -310.182
  H       78.159     -30.993    -318.543
  H       78.208     -32.203    -308.755
  H       79.006     -29.635    -317.858
  H       79.202     -31.571    -310.055
  P       79.381     -34.958    -309.744
  C       79.745     -36.968    -311.301
  O       80.291     -35.766    -310.788
  O       78.940     -36.114    -308.724
  O       80.031     -33.812    -309.042
  H       79.673     -36.321    -308.117
  H       80.359     -37.301    -312.140
  H       78.722     -36.806    -311.655
  H       79.756     -37.739    -310.526
  H       78.123     -30.753    -305.416
  H       77.103     -30.971    -306.818
  H       77.251     -29.393    -306.082

 3  4  5  6  7  8  9  10  11  12  13  21  23  27  28  29  30  32 0
 6-311+G(2d,p)
 ****
 34  35 0
 6-311+G(2d,p)
 ****
 1  2  14  15  16  17  18  19  20  22  24  25  26 0
 3-21G
 ****
 31  33  36  37  38  39  40  41  42  43  44  45  46 0
 3-21G
 ****


