%nproc=1
%NoSave
%Mem=1900MB
#P OB98/GEN NMR

erre ene a

0 1
  C     -179.093    -458.708    -581.550
  O     -179.004    -459.349    -580.294
  H     -179.037    -457.629    -581.395
  H     -180.050    -458.942    -582.026
  H     -178.269    -459.013    -582.200
  P     -178.929    -460.949    -580.243
  C     -176.413    -461.421    -579.959
  O     -177.509    -461.365    -580.863
  C     -175.381    -462.428    -580.457
  O     -175.857    -463.776    -580.248
  C     -175.078    -462.323    -581.948
  O     -174.251    -461.209    -582.215
  C     -174.443    -463.681    -582.201
  O     -173.075    -463.697    -581.769
  C     -175.301    -464.600    -581.298
  N     -176.360    -465.293    -582.040
  C     -175.939    -466.218    -582.989
  O     -174.758    -466.458    -583.216
  N     -176.934    -466.828    -583.703
  C     -178.267    -466.544    -583.626
  O     -179.097    -466.951    -584.434
  C     -178.657    -465.614    -582.558
  C     -177.702    -465.029    -581.835
  O     -180.103    -461.672    -580.814
  O     -178.745    -461.267    -578.684
  H     -179.602    -461.544    -578.309
  H     -173.091    -463.676    -580.790
  H     -176.638    -467.468    -584.428
  H     -179.711    -465.410    -582.420
  H     -177.965    -464.314    -581.059
  H     -174.675    -465.357    -580.816
  H     -174.450    -463.952    -583.256
  H     -176.017    -462.260    -582.515
  H     -174.464    -462.302    -579.865
  H     -176.784    -461.733    -578.977
  H     -175.967    -460.424    -579.870
  P     -174.393    -460.382    -583.580
  C     -175.482    -458.263    -582.634
  O     -175.666    -459.414    -583.446
  O     -174.367    -461.208    -584.820
  O     -173.161    -459.362    -583.543
  H     -172.649    -459.447    -584.378
  H     -176.387    -457.692    -582.614
  H     -174.692    -457.665    -583.037
  H     -175.229    -458.565    -581.639

 6  7  8  9  10  11  12  13  14  15  16  27  31  32  33  34  35 0
 6-311+G(2d,p)
 ****
 36  37 0
 6-311+G(2d,p)
 ****
 1  2  3  4  5  17  18  19  20  21  22  23  24  25 0
 3-21G
 ****
 26  28  29  30  38  39  40  41  42  43  44  45 0
 3-21G
 ****


