%nproc=1
%NoSave
%Mem=1900MB
#P OB98/GEN NMR

erre ene a

0 1
  C      133.811     109.122    -290.932
  O      134.345     108.646    -289.714
  H      134.638     109.349    -291.609
  H      133.237     110.037    -290.766
  H      133.179     108.363    -291.398
  P      133.329     108.241    -288.540
  C      133.744     107.164    -286.220
  O      134.215     107.339    -287.547
  C      134.815     106.499    -285.362
  O      135.245     105.245    -285.937
  C      136.100     107.305    -285.201
  O      135.972     108.417    -284.335
  C      137.012     106.232    -284.635
  O      136.694     106.009    -283.250
  C      136.617     105.017    -285.506
  N      137.496     104.844    -286.662
  C      138.198     103.635    -286.739
  O      138.077     102.781    -285.862
  N      139.055     103.433    -287.794
  C      139.213     104.365    -288.681
  N      140.080     104.114    -289.703
  C      138.510     105.660    -288.630
  C      137.673     105.830    -287.607
  O      132.033     107.634    -288.974
  O      133.151     109.581    -287.683
  H      136.944     106.818    -282.768
  H      132.521     109.387    -286.947
  H      138.698     106.416    -289.377
  H      137.124     106.758    -287.497
  H      136.622     104.093    -284.915
  H      138.070     106.496    -284.685
  H      136.492     107.614    -286.178
  H      134.362     106.267    -284.389
  H      140.549     103.217    -289.711
  H      132.837     106.552    -286.259
  H      140.321     104.811    -290.394
  H      133.500     108.133    -285.778
  P      137.282     109.324    -284.117
  C      137.564     111.856    -283.537
  O      136.787     110.847    -284.162
  O      138.086     109.133    -285.483
  O      138.100     108.979    -282.913
  H      138.793     108.469    -285.380
  H      137.086     112.805    -283.665
  H      138.537     111.883    -283.981
  H      137.655     111.641    -282.493

 6  7  8  9  10  11  12  13  14  15  16  26  30  31  32  33  35 0
 6-311+G(2d,p)
 ****
 37  38 0
 6-311+G(2d,p)
 ****
 1  2  3  4  5  17  18  19  20  21  22  23  24  25 0
 3-21G
 ****
 27  28  29  34  36  39  40  41  42  43  44  45  46 0
 3-21G
 ****


