%nproc=1
%NoSave
%Mem=1900MB
#P OB98/GEN NMR

erre ene a

0 1
  C     -351.264    -898.940     599.853
  O     -350.333    -898.180     600.592
  H     -352.281    -898.610     600.134
  H     -351.172    -900.000     600.092
  H     -351.129    -898.780     598.784
  P     -348.762    -898.470     600.412
  C     -348.343    -896.190     599.304
  O     -348.050    -897.030     600.427
  C     -348.663    -894.770     599.765
  O     -350.021    -894.720     600.281
  C     -347.729    -894.230     600.868
  O     -347.283    -892.920     600.533
  C     -348.629    -894.190     602.092
  O     -348.175    -893.250     603.074
  C     -349.980    -893.880     601.451
  N     -351.082    -894.140     602.357
  C     -352.005    -893.090     602.534
  O     -351.852    -892.030     601.934
  N     -353.036    -893.260     603.428
  C     -353.123    -894.350     604.120
  N     -354.151    -894.440     605.003
  C     -352.162    -895.470     603.991
  C     -351.184    -895.300     603.092
  O     -348.418    -899.340     599.242
  O     -348.303    -899.100     601.810
  H     -347.197    -893.370     603.198
  H     -347.483    -899.630     601.670
  H     -352.279    -896.350     604.589
  H     -350.434    -896.070     602.923
  H     -350.034    -892.830     601.123
  H     -348.654    -895.170     602.569
  H     -346.855    -894.870     601.026
  H     -348.639    -894.110     598.885
  H     -354.790    -893.650     605.071
  H     -349.189    -896.620     598.762
  H     -354.306    -895.230     605.616
  H     -347.451    -896.170     598.660
  P     -346.179    -892.270     601.512
  C     -344.310    -892.010     599.726
  O     -345.201    -891.360     600.609
  O     -345.274    -893.530     601.927
  O     -346.765    -891.580     602.713
  H     -345.430    -893.750     602.864
  H     -343.732    -891.279     599.200
  H     -344.867    -892.596     599.025
  H     -343.656    -892.647     600.284

 6  7  8  9  10  11  12  13  14  15  16  26  30  31  32  33  35 0
 6-311+G(2d,p)
 ****
 37  38 0
 6-311+G(2d,p)
 ****
 1  2  3  4  5  17  18  19  20  21  22  23  24  25 0
 3-21G
 ****
 27  28  29  34  36  39  40  41  42  43  44  45  46 0
 3-21G
 ****


