%nproc=1
%NoSave
%Mem=1900MB
#P OB98/GEN NMR

erre ene a

0 1
  C      136.123    -533.936     192.882
  O      135.048    -534.414     192.102
  H      136.014    -532.854     193.007
  H      137.071    -534.133     192.376
  H      136.126    -534.401     193.871
  P      134.866    -535.995     191.924
  C      132.705    -535.884     193.332
  O      133.970    -536.500     193.153
  C      132.158    -536.161     194.737
  O      132.990    -535.456     195.705
  C      130.710    -535.685     194.957
  O      130.122    -536.564     195.929
  C      130.946    -534.302     195.537
  O      129.783    -533.736     196.085
  C      132.105    -534.626     196.490
  N      132.817    -533.471     197.024
  C      132.276    -532.835     198.137
  O      131.241    -533.181     198.706
  N      132.974    -531.749     198.601
  C      134.137    -531.260     198.082
  O      134.734    -530.302     198.559
  C      134.653    -531.971     196.903
  C      133.987    -533.029     196.436
  O      136.120    -536.770     191.694
  O      133.862    -536.120     190.682
  H      134.365    -536.350     189.876
  H      129.106    -533.649     195.380
  H      132.598    -531.282     199.409
  H      135.568    -531.600     196.458
  H      134.349    -533.576     195.575
  H      131.744    -535.236     197.320
  H      131.268    -533.617     194.746
  H      130.110    -535.698     194.043
  H      132.259    -537.234     194.952
  H      132.017    -536.290     192.583
  H      132.806    -534.803     193.176
  P      129.426    -537.958     195.548
  C      130.992    -539.435     196.991
  O      130.529    -539.120     195.683
  O      128.728    -537.953     194.230
  O      128.406    -538.262     196.743
  H      127.678    -538.826     196.415
  H      131.717    -540.219     196.933
  H      130.168    -539.755     197.594
  H      131.439    -538.567     197.430

 6  7  8  9  10  11  12  13  14  15  16  27  31  32  33  34  35 0
 6-311+G(2d,p)
 ****
 36  37 0
 6-311+G(2d,p)
 ****
 1  2  3  4  5  17  18  19  20  21  22  23  24  25 0
 3-21G
 ****
 26  28  29  30  38  39  40  41  42  43  44  45 0
 3-21G
 ****


