%nproc=1
%NoSave
%Mem=1900MB
#P OB98/GEN NMR

erre ene a

0 1
  C      355.158     106.091    -284.306
  O      355.399     106.219    -282.909
  H      356.012     106.483    -284.845
  H      354.264     106.652    -284.587
  H      355.028     105.033    -284.571
  P      354.276     105.702    -281.891
  C      354.144     108.089    -280.893
  O      353.436     106.995    -281.470
  C      353.197     109.218    -280.538
  O      352.639     109.791    -281.743
  C      352.013     108.790    -279.669
  O      352.408     108.708    -278.312
  C      351.042     109.924    -279.943
  O      351.435     111.098    -279.203
  C      351.251     110.145    -281.458
  N      347.768     110.296    -285.141
  C      348.396     111.327    -284.466
  N      347.993     112.593    -284.789
  N      349.302     111.154    -283.543
  C      349.542     109.853    -283.281
  C      348.979     108.737    -283.873
  C      348.017     108.957    -284.921
  O      347.451     108.057    -285.569
  N      349.417     107.572    -283.281
  C      350.285     107.982    -282.370
  N      350.382     109.358    -282.328
  O      354.756     104.894    -280.722
  O      353.257     104.882    -282.822
  H      350.728     111.754    -279.336
  H      353.485     103.935    -282.837
  H      347.059     110.506    -285.831
  H      350.859     107.330    -281.728
  H      351.119     111.200    -281.742
  H      350.013     109.686    -279.660
  H      347.125     112.764    -285.265
  H      351.566     107.847    -280.026
  H      348.411     113.351    -284.272
  H      353.778     110.008    -280.042
  H      354.889     108.423    -281.621
  H      354.674     107.749    -279.986
  P      351.478     107.960    -277.217
  C      351.428     109.816    -275.396
  O      350.720     109.155    -276.448
  O      352.201     107.013    -276.339
  O      350.308     107.306    -278.081
  H      350.513     106.390    -278.407
  H      350.810     110.582    -274.977
  H      352.322     110.254    -275.788
  H      351.682     109.107    -274.636

 6  7  8  9  10  11  12  13  14  15  26  29  33  34 0
 6-311+G(2d,p)
 ****
 36  38  39  40  41 0
 6-311+G(2d,p)
 ****
 1  2  3  4  5  16  17  18  19  20  21  22  23  24  25 0
 3-21G
 ****
 27  28  30  31  32  35  37  42  43  44  45  46  47 0
 3-21G
 ****
 48  49 0
 3-21G
 ****


