%nproc=1
%NoSave
%Mem=1900MB
#P OB98/GEN NMR

erre ene a

0 1
  C      869.454     365.980     305.818
  O      870.315     366.439     304.801
  P      869.906     366.370     303.263
  C      870.689     364.918     301.272
  O      870.506     364.987     302.680
  C      871.129     363.493     300.866
  O      872.499     363.282     301.329
  C      870.239     362.391     301.496
  O      869.726     361.465     300.526
  C      871.131     361.803     302.550
  O      870.783     360.492     302.958
  C      872.527     361.971     301.927
  N      873.618     361.826     302.895
  C      874.410     360.675     302.794
  O      874.269     359.812     301.929
  N      875.368     360.528     303.758
  C      875.539     361.329     304.853
  O      876.356     361.083     305.721
  C      874.646     362.489     304.942
  C      873.745     362.705     303.951
  O      870.250     367.562     302.440
  O      868.329     366.046     303.327
  H      871.440     360.183     303.611
  H      868.103     365.225     303.786
  H      875.961     359.707     303.696
  H      874.737     363.131     305.802
  H      873.066     363.553     303.998
  H      872.696     361.254     301.118
  H      871.067     362.435     303.458
  H      869.351     362.831     301.954
  H      871.113     363.449     299.764
  H      871.462     365.636     300.966
  H      869.767     365.199     300.753
  P      868.232     360.868     300.552
  C      867.041     358.858     301.756
  O      868.148     359.740     301.700
  O      867.689     360.445     299.233
  O      867.355     362.054     301.172
  H      866.441     362.012     300.840
  H      866.893     358.537     302.801
  H      867.277     357.978     301.131
  H      866.138     359.348     301.373
  H      869.922     366.118     306.770
  H      869.248     364.941     305.669
  H      868.538     366.533     305.787

 3  4  5  6  7  8  9  10  11  12  13  23  28  29  30  31  32 0
 6-311+G(2d,p)
 ****
 33  34 0
 6-311+G(2d,p)
 ****
 1  2  14  15  16  17  18  19  20  21  22  24  25  26  27 0
 3-21G
 ****
 35  36  37  38  39  40  41  42  43  44  45 0
 3-21G
 ****


