%nproc=1
%NoSave
%Mem=1900MB
#P OB98/GEN NMR

erre ene a

0 1
  C      -95.434      66.452      45.736
  O      -95.346      66.331      47.162
  P      -96.487      65.595      48.018
  C      -97.903      66.073      50.109
  O      -97.222      66.641      48.994
  C      -98.049      67.043      51.288
  O      -96.754      67.343      51.880
  C      -98.696      68.390      50.943
  O      -99.398      68.807      52.116
  C      -97.483      69.275      50.707
  O      -97.772      70.664      50.784
  C      -96.549      68.766      51.800
  N      -92.856      72.284      52.272
  C      -94.091      72.202      52.813
  N      -95.000      71.218      52.672
  C      -94.517      70.221      51.911
  C      -93.273      70.160      51.299
  C      -92.423      71.264      51.495
  N      -91.182      71.375      50.910
  N      -93.142      68.993      50.572
  C      -94.293      68.369      50.734
  N      -95.155      69.068      51.537
  O      -96.029      64.349      48.704
  O      -97.619      65.239      46.943
  H      -96.969      71.157      50.535
  H      -97.914      64.317      47.081
  H      -94.390      73.041      53.436
  H      -94.561      67.426      50.276
  H      -96.809      69.195      52.776
  H      -97.081      69.076      49.704
  H      -99.366      68.346      50.081
  H      -98.632      66.531      52.065
  H      -97.352      65.186      50.437
  H      -90.685      72.244      51.036
  H      -90.896      70.686      50.228
  H      -98.896      65.743      49.781
  P     -100.722      69.701      52.033
  C     -101.269      72.197      52.189
  O     -100.245      71.229      52.050
  O     -101.774      69.366      53.039
  O     -101.256      69.497      50.536
  H     -102.195      69.752      50.487
  H     -101.801      72.311      51.239
  H     -100.823      73.155      52.468
  H     -101.984      71.900      52.968
  H      -94.575      66.973      45.369
  H      -96.319      66.996      45.478
  H      -95.474      65.477      45.297

 3  4  5  6  7  8  9  10  11  12  22  25  29  30  31  32 0
 6-311+G(2d,p)
 ****
 33  36  37 0
 6-311+G(2d,p)
 ****
 1  2  13  14  15  16  17  18  19  20  21  23  24  26 0
 3-21G
 ****
 27  28  34  35  38  39  40  41  42  43  44  45  46  47  48 0
 3-21G
 ****


