%nproc=1
%NoSave
%Mem=1900MB
#P OB98/GEN NMR

erre ene a

0 1
  C       33.154    -239.533     149.483
  O       34.215    -239.003     148.712
  H       33.566    -240.258     150.191
  H       32.432    -240.041     148.835
  H       32.663    -238.734     150.044
  P       33.816    -237.935     147.581
  C       35.542    -239.000     145.965
  O       34.178    -238.669     146.198
  C       35.649    -240.316     145.202
  O       35.065    -241.388     145.969
  C       34.945    -240.322     143.849
  O       35.771    -239.745     142.855
  C       34.759    -241.819     143.623
  O       35.985    -242.384     143.118
  C       34.483    -242.345     145.045
  N       30.710    -245.759     145.727
  C       31.952    -245.887     145.218
  N       32.881    -244.931     145.016
  C       32.424    -243.727     145.405
  C       31.172    -243.442     145.941
  C       30.295    -244.527     146.104
  N       29.022    -244.387     146.622
  N       31.053    -242.093     146.220
  C       32.231    -241.592     145.915
  N       33.085    -242.533     145.387
  O       34.372    -236.559     147.764
  O       32.219    -238.035     147.618
  H       35.806    -243.325     142.928
  H       31.936    -238.960     147.715
  H       32.237    -246.896     144.932
  H       32.531    -240.563     146.077
  H       34.979    -243.311     145.217
  H       33.980    -242.036     142.894
  H       33.956    -239.840     143.906
  H       36.719    -240.551     145.080
  H       36.081    -239.077     146.920
  H       28.400    -245.175     146.521
  H       28.673    -243.452     146.776
  H       35.990    -238.183     145.383
  P       35.329    -238.413     142.082
  C       35.486    -239.708     139.861
  O       34.654    -238.930     140.716
  O       36.409    -237.395     141.926
  O       34.080    -237.866     142.914
  H       33.904    -236.930     142.684
  H       34.934    -239.994     138.990
  H       35.811    -240.585     140.381
  H       36.338    -239.130     139.570

 6  7  8  9  10  11  12  13  14  15  25  28  32  33  34  35 0
 6-311+G(2d,p)
 ****
 36  39  40 0
 6-311+G(2d,p)
 ****
 1  2  3  4  5  16  17  18  19  20  21  22  23  24 0
 3-21G
 ****
 26  27  29  30  31  37  38  41  42  43  44  45  46  47 0
 3-21G
 ****
 48 0
 3-21G
 ****


