%nproc=1
%NoSave
%Mem=1900MB
#P OB98/GEN NMR

erre ene a

0 1
  C      227.262    -426.914     321.081
  O      228.038    -428.105     320.890
  P      227.331    -429.403     320.261
  C      227.470    -430.954     322.318
  O      226.621    -430.233     321.437
  C      226.657    -431.849     323.268
  O      227.559    -432.640     324.092
  C      225.740    -431.047     324.208
  O      224.389    -431.504     324.210
  C      226.463    -431.111     325.546
  O      225.602    -430.905     326.654
  C      227.189    -432.465     325.471
  N      228.364    -432.504     326.364
  C      228.136    -432.956     327.654
  O      227.024    -433.248     328.087
  N      229.247    -433.024     328.465
  C      230.499    -432.610     328.139
  O      231.451    -432.638     328.915
  C      230.663    -432.071     326.773
  C      229.597    -432.052     325.963
  O      228.179    -430.214     319.336
  O      226.079    -428.783     319.473
  H      224.973    -430.182     326.428
  H      225.965    -429.276     318.639
  H      229.099    -433.371     329.407
  H      231.637    -431.713     326.490
  H      229.684    -431.645     324.958
  H      226.528    -433.280     325.768
  H      227.213    -430.311     325.575
  H      225.667    -429.998     323.891
  H      226.061    -432.522     322.650
  H      228.057    -430.245     322.910
  H      228.196    -431.537     321.731
  P      223.154    -430.663     323.640
  C      222.802    -429.029     325.632
  O      223.205    -429.193     324.290
  O      221.817    -431.331     323.727
  O      223.548    -430.409     322.107
  H      222.756    -430.506     321.552
  H      222.547    -427.977     325.792
  H      223.633    -429.298     326.292
  H      221.935    -429.652     325.869
  H      227.879    -426.150     321.506
  H      226.446    -427.122     321.742
  H      226.881    -426.581     320.138

 3  4  5  6  7  8  9  10  11  12  13  23  28  29  30  31  32 0
 6-311+G(2d,p)
 ****
 33  34 0
 6-311+G(2d,p)
 ****
 1  2  14  15  16  17  18  19  20  21  22  24  25  26  27 0
 3-21G
 ****
 35  36  37  38  39  40  41  42  43  44  45 0
 3-21G
 ****


