%nproc=1
%NoSave
%Mem=1900MB
#P OB98/GEN NMR

erre ene a

0 1
  C      252.960    -230.985    -328.883
  O      254.305    -230.554    -329.150
  P      254.859    -229.226    -328.435
  C      257.223    -230.129    -327.767
  O      255.954    -229.647    -327.341
  C      258.251    -229.969    -326.641
  O      258.308    -228.591    -326.201
  C      257.939    -230.775    -325.390
  O      258.254    -232.147    -325.552
  C      258.811    -230.072    -324.354
  O      260.167    -230.549    -324.415
  C      258.733    -228.603    -324.820
  N      257.850    -227.797    -323.984
  C      258.286    -227.542    -322.687
  O      259.324    -228.011    -322.222
  N      257.464    -226.759    -321.924
  C      256.245    -226.266    -322.301
  O      255.547    -225.583    -321.562
  C      255.800    -226.637    -323.652
  C      256.606    -227.376    -324.417
  O      253.616    -228.804    -327.511
  O      255.242    -228.108    -329.348
  H      260.652    -230.102    -323.695
  H      253.629    -227.837    -327.373
  H      257.775    -226.538    -320.991
  H      254.830    -226.287    -323.979
  H      256.295    -227.655    -325.418
  H      259.730    -228.151    -324.810
  H      258.458    -230.233    -323.332
  H      256.888    -230.649    -325.115
  H      259.237    -230.239    -327.041
  H      257.552    -229.553    -328.637
  H      257.127    -231.180    -328.055
  P      257.452    -233.184    -324.624
  C      255.908    -233.591    -326.695
  O      256.009    -233.336    -325.310
  O      257.196    -232.290    -323.318
  O      258.199    -234.450    -324.376
  H      257.073    -231.351    -323.536
  H      256.736    -234.205    -327.054
  H      255.900    -232.640    -327.238
  H      254.972    -234.119    -326.884
  H      252.755    -231.878    -329.436
  H      252.275    -230.218    -329.178
  H      252.849    -231.180    -327.837

 3  4  5  6  7  8  9  10  11  12  13  23  28  29  30  31  32 0
 6-311+G(2d,p)
 ****
 33  34 0
 6-311+G(2d,p)
 ****
 1  2  14  15  16  17  18  19  20  21  22  24  25  26 0
 3-21G
 ****
 27  35  36  37  38  39  40  41  42  43  44  45 0
 3-21G
 ****


