%nproc=1
%NoSave
%Mem=1900MB
#P OB98/GEN NMR

erre ene a

0 1
  C      402.492     999.342     325.591
  O      403.840     999.216     326.008
  P      404.320     997.979     326.899
  C      404.457     999.284     329.180
  O      405.107     998.543     328.161
  C      404.976     998.814     330.548
  O      404.736     997.403     330.721
  C      406.475     999.067     330.680
  O      406.718    1000.318     331.333
  C      406.932     997.867     331.488
  O      406.674     998.071     332.895
  C      406.014     996.749     330.937
  N      406.411     996.084     329.676
  C      406.029     994.771     329.449
  O      405.335     994.108     330.221
  N      406.488     994.210     328.273
  C      407.241     994.851     327.332
  O      407.843     994.286     326.431
  C      407.374     996.299     327.507
  C      406.985     996.836     328.660
  O      405.463     997.311     326.011
  O      403.247     996.997     327.255
  H      407.011     997.304     333.368
  H      405.126     996.547     325.518
  H      406.329     993.214     328.169
  H      407.837     996.870     326.715
  H      407.107     997.903     328.827
  H      405.860     995.961     331.684
  H      408.004     997.721     331.394
  H      406.952     999.032     329.700
  H      404.425     999.355     331.330
  H      403.362     999.122     329.108
  H      404.627    1000.346     329.046
  P      407.275    1001.542     330.479
  C      409.022    1002.179     332.250
  O      407.848    1002.580     331.558
  O      406.318    1002.119     329.477
  O      408.580    1000.943     329.770
  H      408.363    1000.675     328.859
  H      409.402    1003.030     332.826
  H      409.785    1001.837     331.547
  H      408.779    1001.367     332.952
  H      402.381    1000.233     325.008
  H      401.856     999.396     326.450
  H      402.221     998.493     325.000

 3  4  5  6  7  8  9  10  11  12  13  23  28  29  30  31  32 0
 6-311+G(2d,p)
 ****
 33  34 0
 6-311+G(2d,p)
 ****
 1  2  14  15  16  17  18  19  20  21  22  24  25  26  27 0
 3-21G
 ****
 35  36  37  38  39  40  41  42  43  44  45 0
 3-21G
 ****


