%nproc=1
%NoSave
%Mem=1900MB
#P OB98/GEN NMR

erre ene a

0 1
  C     -184.102    -114.721      43.075
  O     -182.725    -114.832      42.766
  P     -181.620    -114.822      43.919
  C     -180.367    -112.699      43.014
  O     -181.057    -113.336      44.065
  C     -179.858    -111.337      43.506
  O     -180.958    -110.538      43.982
  C     -178.857    -111.494      44.650
  O     -177.529    -111.490      44.156
  C     -179.177    -110.303      45.535
  O     -178.544    -109.114      45.027
  C     -180.714    -110.202      45.375
  N     -181.559    -111.077      46.210
  C     -182.943    -110.932      46.179
  O     -183.527    -110.127      45.462
  N     -183.646    -111.744      47.034
  C     -183.107    -112.690      47.857
  O     -183.709    -113.232      48.780
  C     -181.686    -112.979      47.646
  C     -180.985    -112.158      46.865
  O     -180.399    -115.617      43.257
  O     -182.042    -115.427      45.217
  H     -178.921    -108.943      44.146
  H     -180.389    -116.544      43.555
  H     -184.638    -111.547      47.118
  H     -181.247    -113.812      48.175
  H     -179.919    -112.327      46.721
  H     -181.058    -109.173      45.537
  H     -178.793    -110.446      46.544
  H     -179.064    -112.414      45.213
  H     -179.394    -110.807      42.665
  H     -181.032    -112.569      42.153
  H     -179.529    -113.320      42.685
  P     -176.335    -112.000      45.092
  C     -175.532    -109.565      45.108
  O     -175.843    -110.699      45.894
  O     -175.261    -112.776      44.404
  O     -177.089    -112.882      46.198
  H     -177.037    -113.830      45.958
  H     -175.386    -108.709      45.770
  H     -176.346    -109.342      44.413
  H     -174.606    -109.742      44.552
  H     -184.674    -114.748      42.171
  H     -184.280    -113.796      43.582
  H     -184.393    -115.535      43.705

 3  4  5  6  7  8  9  10  11  12  13  23  28  29  30  31  32 0
 6-311+G(2d,p)
 ****
 33  34 0
 6-311+G(2d,p)
 ****
 1  2  14  15  16  17  18  19  20  21  22  24  25  26  27 0
 3-21G
 ****
 35  36  37  38  39  40  41  42  43  44  45 0
 3-21G
 ****


