%nproc=1
%NoSave
%Mem=1900MB
#P OB98/GEN NMR

erre ene a

0 1
  C      -41.848     -75.981     -74.657
  O      -42.664     -75.289     -75.579
  P      -43.564     -74.031     -75.180
  C      -44.862     -74.214     -77.424
  O      -44.941     -74.116     -76.007
  C      -46.188     -74.645     -78.070
  O      -46.461     -76.021     -77.735
  C      -47.345     -73.821     -77.496
  O      -47.637     -72.541     -78.019
  C      -48.528     -74.781     -77.451
  O      -49.406     -74.623     -78.567
  C      -47.868     -76.161     -77.480
  N      -48.870     -80.716     -75.492
  C      -48.478     -80.394     -76.777
  N      -48.551     -81.394     -77.684
  N      -48.081     -79.202     -77.136
  C      -48.155     -78.286     -76.142
  C      -48.512     -78.487     -74.829
  C      -48.910     -79.819     -74.435
  O      -49.343     -80.125     -73.327
  N      -48.542     -77.313     -74.122
  C      -48.243     -76.392     -75.015
  N      -48.039     -76.931     -76.263
  O      -42.869     -72.711     -75.081
  O      -44.037     -74.439     -73.692
  H      -48.956     -74.977     -79.355
  H      -44.102     -73.615     -73.170
  H      -49.242     -81.636     -75.292
  H      -48.195     -75.328     -74.819
  H      -48.274     -76.767     -78.300
  H      -49.135     -74.605     -76.554
  H      -48.989     -82.281     -77.476
  H      -47.102     -73.627     -76.443
  H      -48.437     -81.156     -78.663
  H      -46.123     -74.612     -79.161
  H      -44.068     -74.929     -77.659
  H      -44.558     -73.250     -77.840
  P      -48.508     -71.402     -77.311
  C      -48.346     -70.062     -79.484
  O      -49.201     -70.515     -78.449
  O      -47.422     -70.400     -76.691
  O      -49.433     -71.889     -76.243
  H      -47.823     -69.888     -75.965
  H      -48.835     -69.241     -80.016
  H      -48.158     -70.879     -80.187
  H      -47.395     -69.706     -79.078
  H      -41.344     -76.782     -75.157
  H      -42.456     -76.378     -73.871
  H      -41.126     -75.308     -74.245

 3  4  5  6  7  8  9  10  11  12  23  26  30  31 0
 6-311+G(2d,p)
 ****
 33  35  36  37  38 0
 6-311+G(2d,p)
 ****
 1  2  13  14  15  16  17  18  19  20  21  22  24  25 0
 3-21G
 ****
 27  28  29  32  34  39  40  41  42  43  44  45  46  47  48  49 0
 3-21G
 ****


