%nproc=1
%NoSave
%Mem=1900MB
#P OB98/GEN NMR

erre ene a

0 1
  C     -155.540     481.617    -200.451
  O     -156.188     480.374    -200.250
  H     -154.895     481.817    -199.595
  H     -156.281     482.419    -200.530
  H     -154.928     481.581    -201.358
  P     -157.212     479.909    -201.396
  C     -159.077     479.287    -199.697
  O     -158.685     480.111    -200.788
  C     -159.719     480.127    -198.597
  O     -158.874     481.252    -198.252
  C     -161.083     480.702    -198.960
  O     -162.111     479.748    -198.757
  C     -161.175     481.875    -197.996
  O     -161.587     481.453    -196.678
  C     -159.723     482.394    -197.978
  N     -157.777     487.012    -198.585
  C     -157.822     486.204    -197.466
  N     -157.321     486.731    -196.321
  N     -158.323     484.998    -197.461
  C     -158.817     484.622    -198.664
  C     -158.817     485.324    -199.852
  C     -158.228     486.649    -199.842
  O     -158.102     487.388    -200.817
  N     -159.393     484.596    -200.860
  C     -159.779     483.474    -200.280
  N     -159.463     483.451    -198.943
  O     -157.041     478.315    -201.420
  O     -156.980     480.508    -202.744
  H     -162.411     480.946    -196.747
  H     -157.209     477.991    -202.327
  H     -157.359     487.929    -198.527
  H     -160.282     482.658    -200.779
  H     -159.441     482.786    -196.995
  H     -161.908     482.615    -198.324
  H     -157.236     487.731    -196.192
  H     -161.086     481.077    -199.993
  H     -157.373     486.150    -195.493
  H     -159.793     479.493    -197.702
  H     -158.187     478.786    -199.295
  H     -159.783     478.529    -200.053
  P     -162.864     479.176    -200.060
  C     -165.074     480.062    -199.001
  O     -164.256     479.965    -200.162
  O     -163.316     477.704    -199.606
  O     -162.033     479.156    -201.299
  H     -163.532     477.166    -200.389
  H     -165.960     480.615    -199.234
  H     -164.534     480.564    -198.225
  H     -165.343     479.080    -198.671

 6  7  8  9  10  11  12  13  14  15  26  29  33  34 0
 6-311+G(2d,p)
 ****
 36  38  39  40  41 0
 6-311+G(2d,p)
 ****
 1  2  3  4  5  16  17  18  19  20  21  22  23  24  25 0
 3-21G
 ****
 27  28  30  31  32  35  37  42  43  44  45  46  47 0
 3-21G
 ****
 48  49 0
 3-21G
 ****


