%nproc=1
%NoSave
%Mem=1900MB
#P OB98/GEN NMR

erre ene a

0 1
  C     -525.633     238.119     436.671
  O     -526.152     237.408     435.547
  P     -525.330     237.494     434.173
  C     -526.346     235.087     433.952
  O     -525.810     236.233     433.304
  C     -527.826     234.919     433.600
  O     -528.605     236.005     434.171
  C     -528.116     234.957     432.105
  O     -527.730     233.751     431.472
  C     -529.609     235.230     432.115
  O     -530.346     234.016     432.360
  C     -529.760     236.177     433.321
  N     -529.935     237.577     432.941
  C     -531.259     237.993     432.761
  O     -532.225     237.243     432.888
  N     -531.429     239.303     432.409
  C     -530.436     240.207     432.200
  O     -530.646     241.382     431.898
  C     -529.056     239.699     432.345
  C     -528.877     238.432     432.713
  O     -523.865     237.096     434.665
  O     -525.444     238.821     433.502
  H     -523.862     236.436     435.381
  H     -531.287     234.271     432.418
  H     -532.379     239.634     432.292
  H     -528.240     240.393     432.160
  H     -527.872     238.026     432.824
  H     -530.629     235.882     433.931
  H     -529.970     235.646     431.161
  H     -527.594     235.796     431.641
  H     -528.176     233.982     434.034
  H     -526.247     235.185     435.035
  H     -525.772     234.206     433.646
  P     -526.610     233.859     430.325
  C     -526.084     231.350     430.863
  O     -526.266     232.351     429.886
  O     -525.338     234.321     431.178
  O     -526.981     234.783     429.216
  H     -525.231     233.825     432.005
  H     -526.208     230.370     430.387
  H     -526.830     231.439     431.664
  H     -525.073     231.414     431.283
  H     -526.277     237.974     437.513
  H     -525.578     239.162     436.439
  H     -524.655     237.754     436.903

 3  4  5  6  7  8  9  10  11  12  13  24  28  29  30  31  32 0
 6-311+G(2d,p)
 ****
 33  34 0
 6-311+G(2d,p)
 ****
 1  2  14  15  16  17  18  19  20  21  22  23  25  26  27 0
 3-21G
 ****
 35  36  37  38  39  40  41  42  43  44  45 0
 3-21G
 ****


