%nproc=1
%NoSave
%Mem=1900MB
#P OB98/GEN NMR

erre ene a

0 1
  C     -112.539    -492.872      68.731
  O     -111.227    -492.319      68.603
  P     -110.663    -492.180      67.104
  C     -109.505    -494.502      67.006
  O     -110.535    -493.659      66.492
  C     -108.830    -495.295      65.882
  O     -107.520    -495.775      66.313
  C     -109.634    -496.525      65.425
  O     -109.415    -496.656      64.014
  C     -108.957    -497.649      66.192
  O     -109.267    -498.936      65.679
  C     -107.505    -497.211      66.076
  N     -102.964    -499.498      66.553
  C     -103.591    -498.917      65.492
  N     -104.799    -498.340      65.446
  C     -105.384    -498.366      66.658
  C     -104.876    -498.907      67.829
  C     -103.599    -499.491      67.751
  N     -102.965    -500.085      68.822
  N     -105.788    -498.764      68.873
  C     -106.847    -498.211      68.307
  N     -106.615    -497.875      67.001
  O     -109.144    -491.711      67.315
  O     -111.441    -491.224      66.262
  H     -110.235    -499.088      65.725
  H     -109.065    -490.747      67.191
  H     -103.032    -498.948      64.558
  H     -107.795    -498.033      68.794
  H     -107.098    -497.375      65.067
  H     -109.291    -497.627      67.237
  H     -110.711    -496.441      65.618
  H     -108.666    -494.617      65.032
  H     -109.922    -495.194      67.742
  H     -102.053    -500.488      68.661
  H     -103.410    -500.120      69.723
  H     -108.774    -493.882      67.550
  P     -110.571    -496.202      63.003
  C     -111.761    -498.480      63.017
  O     -111.834    -497.119      63.398
  O     -110.077    -496.912      61.654
  O     -110.804    -494.734      62.881
  H     -109.877    -497.856      61.797
  H     -112.638    -499.005      63.412
  H     -110.857    -498.938      63.429
  H     -111.762    -498.570      61.923
  H     -112.808    -492.916      69.766
  H     -112.552    -493.858      68.316
  H     -113.239    -492.255      68.207

 3  4  5  6  7  8  9  10  11  12  22  25  29  30  31  32 0
 6-311+G(2d,p)
 ****
 33  36  37 0
 6-311+G(2d,p)
 ****
 1  2  13  14  15  16  17  18  19  20  21  23  24  26 0
 3-21G
 ****
 27  28  34  35  38  39  40  41  42  43  44  45  46  47  48 0
 3-21G
 ****


