%nproc=1
%NoSave
%Mem=1900MB
#P OB98/GEN NMR

erre ene a

0 1
  C      440.219     719.931     661.288
  O      439.395     719.494     660.220
  H      439.854     720.890     661.665
  H      440.167     719.195     662.099
  H      441.256     720.017     660.967
  P      439.546     720.255     658.821
  C      438.013     722.300     659.278
  O      438.174     721.066     658.591
  C      436.658     722.925     658.938
  O      436.677     723.340     657.532
  C      435.452     721.982     659.133
  O      434.368     722.750     659.660
  C      435.119     721.547     657.719
  O      433.755     721.167     657.571
  C      435.488     722.800     656.928
  N      433.193     721.239     652.668
  C      432.703     721.730     653.818
  N      433.390     722.183     654.887
  C      434.711     722.133     654.658
  C      435.360     721.661     653.535
  C      434.534     721.174     652.508
  N      435.024     720.599     651.350
  N      436.737     721.730     653.691
  C      436.913     722.219     654.913
  N      435.722     722.474     655.532
  O      439.449     719.046     657.765
  O      440.802     721.049     658.647
  H      433.586     720.378     658.119
  H      440.334     718.673     657.617
  H      431.621     721.777     653.899
  H      437.866     722.358     655.394
  H      434.708     723.569     656.956
  H      435.756     720.703     657.429
  H      435.664     721.132     659.803
  H      436.541     723.832     659.536
  H      438.815     722.980     658.975
  H      434.352     720.182     650.709
  H      436.018     720.449     651.266
  H      438.088     722.124     660.358
  P      434.336     723.004     661.250
  C      431.871     722.283     661.719
  O      432.833     723.339     661.683
  O      435.096     724.403     661.415
  O      435.005     721.919     662.045
  H      435.588     724.427     662.246
  H      430.924     722.674     662.026
  H      432.190     721.534     662.413
  H      431.779     721.851     660.745

 6  7  8  9  10  11  12  13  14  15  25  28  32  33  34  35 0
 6-311+G(2d,p)
 ****
 36  39  40 0
 6-311+G(2d,p)
 ****
 1  2  3  4  5  16  17  18  19  20  21  22  23  24 0
 3-21G
 ****
 26  27  29  30  31  37  38  41  42  43  44  45  46  47 0
 3-21G
 ****
 48 0
 3-21G
 ****


