%nproc=1
%NoSave
%Mem=1900MB
#P OB98/GEN NMR

erre ene a

0 1
  C      209.660    -374.344     -27.138
  O      210.523    -373.267     -27.439
  H      210.245    -375.266     -27.106
  H      208.898    -374.438     -27.916
  H      209.182    -374.196     -26.164
  P      209.925    -371.785     -27.307
  C      211.236    -371.104     -25.166
  O      209.976    -371.411     -25.745
  C      211.419    -369.590     -25.083
  O      210.416    -369.051     -24.173
  C      212.795    -369.155     -24.559
  O      213.181    -367.959     -25.245
  C      212.518    -368.825     -23.103
  O      213.459    -367.930     -22.528
  C      211.107    -368.240     -23.203
  N      210.406    -368.243     -21.920
  C      210.845    -367.347     -20.950
  O      211.717    -366.499     -21.121
  N      210.228    -367.454     -19.729
  C      209.265    -368.356     -19.386
  O      208.768    -368.415     -18.268
  C      208.853    -369.283     -20.451
  C      209.434    -369.187     -21.647
  O      208.365    -372.001     -27.585
  O      210.533    -370.765     -28.210
  H      208.174    -371.915     -28.537
  H      213.328    -367.056     -22.948
  H      210.533    -366.811     -19.015
  H      208.098    -370.021     -20.214
  H      209.169    -369.869     -22.449
  H      211.146    -367.218     -23.598
  H      212.518    -369.745     -22.508
  H      213.576    -369.913     -24.669
  H      211.219    -369.156     -26.069
  H      212.033    -371.525     -25.787
  H      211.292    -371.552     -24.168
  P      214.684    -367.884     -25.808
  C      214.401    -369.543     -27.814
  O      214.942    -369.294     -26.526
  O      215.525    -367.967     -24.450
  O      214.934    -366.671     -26.638
  H      215.114    -368.540     -23.783
  H      214.674    -370.528     -28.131
  H      214.786    -368.825     -28.508
  H      213.335    -369.464     -27.774

 6  7  8  9  10  11  12  13  14  15  16  27  31  32  33  34  35 0
 6-311+G(2d,p)
 ****
 36  37 0
 6-311+G(2d,p)
 ****
 1  2  3  4  5  17  18  19  20  21  22  23  24  25 0
 3-21G
 ****
 26  28  29  30  38  39  40  41  42  43  44  45 0
 3-21G
 ****


