%nproc=1
%NoSave
%Mem=1900MB
#P OB98/GEN NMR

erre ene a

0 1
  C     -381.423    -624.019      76.120
  O     -380.901    -622.759      75.764
  H     -382.442    -623.890      76.493
  H     -380.816    -624.459      76.920
  H     -381.444    -624.695      75.260
  P     -379.543    -622.744      74.914
  C     -379.961    -620.404      73.884
  O     -379.132    -621.204      74.710
  C     -381.138    -619.850      74.680
  O     -380.650    -619.318      75.938
  C     -381.908    -618.733      73.965
  O     -383.304    -618.882      74.235
  C     -381.395    -617.472      74.640
  O     -382.324    -616.391      74.560
  C     -381.129    -617.968      76.057
  N     -380.105    -615.654      80.414
  C     -381.136    -616.503      80.079
  N     -382.033    -616.783      81.044
  N     -381.276    -617.042      78.891
  C     -380.284    -616.708      78.034
  C     -379.208    -615.866      78.242
  C     -379.081    -615.255      79.547
  O     -378.208    -614.476      79.901
  N     -378.441    -615.752      77.112
  C     -379.042    -616.523      76.218
  N     -380.162    -617.129      76.737
  O     -380.019    -623.202      73.456
  O     -378.453    -623.623      75.428
  H     -381.893    -615.607      74.961
  H     -379.608    -624.056      73.224
  H     -380.056    -615.246      81.331
  H     -378.728    -616.670      75.206
  H     -382.040    -617.977      76.668
  H     -380.461    -617.148      74.150
  H     -381.965    -616.444      81.986
  H     -381.745    -618.720      72.889
  H     -382.776    -617.438      80.830
  H     -381.807    -620.686      74.933
  H     -380.339    -621.017      73.058
  H     -379.371    -619.573      73.471
  P     -384.241    -619.279      72.990
  C     -386.399    -619.786      74.339
  O     -385.765    -618.943      73.382
  O     -384.195    -620.884      72.999
  O     -383.784    -618.729      71.683
  H     -383.659    -621.202      72.244
  H     -387.401    -619.449      74.503
  H     -385.856    -619.751      75.260
  H     -386.416    -620.791      73.973

 6  7  8  9  10  11  12  13  14  15  26  29  33  34 0
 6-311+G(2d,p)
 ****
 36  38  39  40  41 0
 6-311+G(2d,p)
 ****
 1  2  3  4  5  16  17  18  19  20  21  22  23  24  25 0
 3-21G
 ****
 27  28  30  31  32  35  37  42  43  44  45  46  47 0
 3-21G
 ****
 48  49 0
 3-21G
 ****


