%nproc=1
%NoSave
%Mem=1900MB
#P OB98/GEN NMR

erre ene a

0 1
  C      352.071    1210.185    -612.153
  O      351.196    1209.461    -612.991
  H      352.743    1210.773    -612.772
  H      352.660    1209.496    -611.542
  H      351.501    1210.863    -611.512
  P      350.134    1208.457    -612.332
  C      348.222    1210.137    -612.770
  O      348.913    1209.360    -611.799
  C      347.324    1211.175    -612.070
  O      348.203    1212.112    -611.398
  C      346.453    1211.960    -613.058
  O      345.069    1211.934    -612.727
  C      347.147    1213.312    -613.154
  O      346.303    1214.390    -613.506
  C      347.811    1213.457    -611.780
  N      348.961    1214.345    -611.753
  C      348.709    1215.714    -611.685
  O      347.592    1216.231    -611.615
  N      349.817    1216.526    -611.691
  C      351.117    1216.111    -611.758
  O      352.070    1216.884    -611.748
  C      351.324    1214.663    -611.852
  C      350.253    1213.852    -611.854
  O      350.692    1207.501    -611.337
  O      349.494    1207.689    -613.580
  H      346.200    1214.375    -614.477
  H      349.886    1206.797    -613.647
  H      349.647    1217.521    -611.632
  H      352.333    1214.284    -611.931
  H      350.358    1212.776    -611.916
  H      347.086    1213.822    -611.042
  H      347.932    1213.256    -613.921
  H      346.477    1211.493    -614.062
  H      346.725    1210.668    -611.313
  H      347.622    1209.456    -613.378
  H      348.946    1210.648    -613.419
  P      344.104    1210.682    -612.926
  C      343.614    1210.346    -610.380
  O      344.135    1209.812    -611.585
  O      344.257    1209.950    -614.221
  O      342.626    1211.350    -612.917
  H      342.081    1210.816    -613.523
  H      343.720    1209.626    -609.596
  H      342.578    1210.580    -610.512
  H      344.150    1211.235    -610.123

 6  7  8  9  10  11  12  13  14  15  16  26  31  32  33  34  35 0
 6-311+G(2d,p)
 ****
 36  37 0
 6-311+G(2d,p)
 ****
 1  2  3  4  5  17  18  19  20  21  22  23  24  25 0
 3-21G
 ****
 27  28  29  30  38  39  40  41  42  43  44  45 0
 3-21G
 ****


