%nproc=1
%NoSave
%Mem=1900MB
#P OB98/GEN NMR

erre ene a

0 1
  C      -95.049    -152.749      73.912
  O      -94.175    -153.675      73.301
  H      -94.632    -151.746      73.801
  H      -95.144    -152.973      74.977
  H      -96.034    -152.776      73.437
  P      -94.696    -155.182      73.139
  C      -93.434    -156.143      71.078
  O      -93.484    -156.018      72.491
  C      -92.380    -157.178      70.683
  O      -91.060    -156.608      70.924
  C      -92.464    -158.490      71.474
  O      -92.117    -159.569      70.598
  C      -91.377    -158.331      72.520
  O      -90.891    -159.561      73.039
  C      -90.322    -157.553      71.724
  N      -89.357    -156.872      72.587
  C      -88.163    -157.534      72.855
  O      -87.825    -158.605      72.356
  N      -87.332    -156.909      73.750
  C      -87.580    -155.735      74.398
  O      -86.803    -155.236      75.204
  C      -88.862    -155.088      74.079
  C      -89.678    -155.678      73.204
  O      -95.750    -155.072      71.943
  O      -95.284    -155.795      74.366
  H      -96.642    -154.877      72.289
  H      -91.664    -160.053      73.394
  H      -86.460    -157.376      73.956
  H      -89.098    -154.162      74.583
  H      -90.642    -155.241      72.963
  H      -89.795    -158.222      71.037
  H      -91.750    -157.732      73.360
  H      -93.444    -158.678      71.924
  H      -92.454    -157.364      69.604
  H      -93.171    -155.178      70.636
  H      -94.421    -156.444      70.706
  P      -92.898    -160.956      70.794
  C      -93.789    -161.391      68.367
  O      -92.831    -161.695      69.370
  O      -94.410    -160.447      70.906
  O      -92.406    -161.744      71.960
  H      -94.595    -159.676      70.344
  H      -93.588    -161.975      67.493
  H      -93.731    -160.351      68.122
  H      -94.770    -161.618      68.730

 6  7  8  9  10  11  12  13  14  15  16  27  31  32  33  34  35 0
 6-311+G(2d,p)
 ****
 36  37 0
 6-311+G(2d,p)
 ****
 1  2  3  4  5  17  18  19  20  21  22  23  24  25 0
 3-21G
 ****
 26  28  29  30  38  39  40  41  42  43  44  45 0
 3-21G
 ****


