%nproc=1
%NoSave
%Mem=1900MB
#P OB98/GEN NMR

erre ene a

0 1
  C        5.285     -36.898      32.740
  O        4.833     -37.323      34.033
  P        5.826     -37.693      35.238
  C        7.829     -36.513      36.376
  O        6.601     -36.356      35.675
  C        8.462     -35.151      36.673
  O        8.839     -34.492      35.441
  C        7.552     -34.149      37.367
  O        7.344     -34.460      38.732
  C        8.309     -32.843      37.129
  O        9.334     -32.646      38.114
  C        8.948     -33.082      35.747
  N        8.353     -32.272      34.698
  C        9.086     -31.161      34.271
  O       10.140     -30.859      34.828
  N        8.594     -30.412      33.231
  C        7.427     -30.682      32.736
  N        7.000     -29.917      31.695
  C        6.562     -31.760      33.251
  C        7.083     -32.509      34.221
  O        6.733     -38.843      34.945
  O        4.876     -38.012      36.486
  H        5.332     -38.620      37.096
  H        9.748     -31.783      37.920
  H        5.577     -31.925      32.838
  H        6.520     -33.333      34.648
  H       10.025     -32.880      35.789
  H        7.650     -31.971      37.170
  H        6.589     -34.110      36.842
  H        9.369     -35.320      37.270
  H        7.622     -29.192      31.360
  H        8.515     -37.092      35.748
  H        6.118     -30.058      31.224
  H        7.649     -37.071      37.300
  P        5.937     -35.123      39.120
  C        4.967     -37.527      39.246
  O        6.098     -36.713      39.006
  O        4.988     -34.744      37.886
  O        5.362     -34.642      40.412
  H        4.095     -34.529      38.212
  H        5.080     -38.457      38.684
  H        4.040     -37.035      38.936
  H        4.914     -37.763      40.311
  H        4.440     -36.711      32.111
  H        5.891     -37.664      32.304
  H        5.861     -36.002      32.840

 3  4  5  6  7  8  9  10  11  12  13  24  27  28  29  30  32 0
 6-311+G(2d,p)
 ****
 34  35 0
 6-311+G(2d,p)
 ****
 1  2  14  15  16  17  18  19  20  21  22  23  25  26 0
 3-21G
 ****
 31  33  36  37  38  39  40  41  42  43  44  45  46 0
 3-21G
 ****


