%nproc=1
%NoSave
%Mem=1900MB
#P OB98/GEN NMR

erre ene a

0 1
  C      -91.356      36.376    -153.632
  O      -90.707      37.630    -153.552
  H      -90.606      35.600    -153.801
  H      -92.053      36.379    -154.476
  H      -91.893      36.154    -152.704
  P      -91.568      38.866    -153.004
  C      -91.508      38.606    -150.425
  O      -90.967      39.258    -151.565
  C      -90.699      38.962    -149.175
  O      -89.353      38.430    -149.326
  C      -90.576      40.472    -148.923
  O      -90.653      40.712    -147.514
  C      -89.180      40.802    -149.423
  O      -88.634      41.965    -148.800
  C      -88.432      39.511    -149.100
  N      -83.390      39.614    -149.074
  C      -84.290      39.714    -148.029
  N      -83.770      39.874    -146.791
  N      -85.589      39.663    -148.186
  C      -85.963      39.467    -149.476
  C      -85.171      39.359    -150.595
  C      -83.736      39.444    -150.411
  O      -82.888      39.389    -151.297
  N      -85.929      39.198    -151.729
  C      -87.177      39.212    -151.295
  N      -87.249      39.364    -149.936
  O      -92.981      38.198    -152.652
  O      -91.727      40.008    -153.954
  H      -89.332      42.657    -148.808
  H      -93.675      38.566    -153.231
  H      -82.401      39.676    -148.897
  H      -88.057      39.124    -151.916
  H      -88.098      39.470    -148.057
  H      -89.208      40.978    -150.506
  H      -82.783      39.871    -146.592
  H      -91.346      41.056    -149.433
  H      -84.415      39.909    -146.005
  H      -91.146      38.453    -148.312
  H      -91.475      37.525    -150.587
  H      -92.551      38.916    -150.290
  P      -92.029      41.319    -146.952
  C      -93.409      39.304    -146.084
  O      -92.545      40.383    -145.752
  O      -93.066      41.023    -148.135
  O      -91.961      42.782    -146.637
  H      -93.292      41.855    -148.594
  H      -93.671      38.770    -145.194
  H      -92.910      38.644    -146.762
  H      -94.296      39.686    -146.545

 6  7  8  9  10  11  12  13  14  15  26  29  33  34 0
 6-311+G(2d,p)
 ****
 36  38  39  40  41 0
 6-311+G(2d,p)
 ****
 1  2  3  4  5  16  17  18  19  20  21  22  23  24  25 0
 3-21G
 ****
 27  28  30  31  32  35  37  42  43  44  45  46  47 0
 3-21G
 ****
 48  49 0
 3-21G
 ****


