%nproc=1
%NoSave
%Mem=1900MB
#P OB98/GEN NMR

erre ene a

0 1
  C      377.091      60.956    -359.553
  O      377.756      60.764    -358.319
  H      377.820      61.293    -360.298
  H      376.317      61.720    -359.448
  H      376.646      60.019    -359.895
  P      376.870      60.225    -357.096
  C      376.570      62.717    -356.413
  O      375.948      61.457    -356.635
  C      376.816      62.915    -354.917
  O      377.464      64.193    -354.701
  C      375.543      62.958    -354.071
  O      375.038      61.655    -353.819
  C      376.040      63.671    -352.823
  O      376.685      62.767    -351.920
  C      377.070      64.661    -353.395
  N      375.558      68.705    -350.676
  C      376.103      67.523    -350.309
  N      376.493      66.499    -351.100
  C      376.286      66.799    -352.399
  C      375.737      67.959    -352.919
  C      375.360      68.951    -351.996
  N      374.776      70.139    -352.365
  N      375.644      67.870    -354.297
  C      376.132      66.690    -354.597
  N      376.542      66.009    -353.485
  O      377.940      60.084    -355.913
  O      376.143      58.945    -357.353
  H      377.082      63.314    -351.212
  H      378.269      59.165    -355.876
  H      376.230      67.376    -349.240
  H      376.208      66.277    -355.601
  H      377.979      64.710    -352.782
  H      375.219      64.143    -352.281
  H      374.784      63.580    -354.562
  H      377.492      62.129    -354.569
  H      375.907      63.516    -356.778
  H      377.511      62.752    -356.966
  H      374.513      70.795    -351.645
  H      374.528      70.287    -353.334
  P      373.575      61.516    -353.171
  C      374.572      60.656    -350.926
  O      373.743      61.601    -351.575
  O      373.208      59.981    -353.429
  O      372.549      62.444    -353.738
  H      372.607      59.904    -354.203
  H      374.577      60.849    -349.874
  H      375.569      60.734    -351.307
  H      374.198      59.670    -351.106

 6  7  8  9  10  11  12  13  14  15  25  28  32  33  34  35 0
 6-311+G(2d,p)
 ****
 36  37  40 0
 6-311+G(2d,p)
 ****
 1  2  3  4  5  16  17  18  19  20  21  22  23  24 0
 3-21G
 ****
 26  27  29  30  31  38  39 41  42  43  44  45  46  47  48 0
 3-21G
 ****


