%nproc=1
%NoSave
%Mem=1900MB
#P OB98/GEN NMR

erre ene a

0 1
  C        8.584      25.792     -18.993
  O        9.023      24.536     -18.474
  P       10.555      24.348     -18.053
  C       10.613      23.998     -15.492
  O       10.771      24.913     -16.569
  C        9.531      24.500     -14.531
  O        8.216      24.440     -15.136
  C        9.416      23.652     -13.271
  O       10.487      23.726     -12.355
  C        8.034      24.019     -12.759
  O        8.059      25.229     -12.003
  C        7.256      24.219     -14.081
  N        6.374      23.094     -14.391
  C        5.155      23.071     -13.721
  O        4.830      23.905     -12.880
  N        4.328      22.023     -14.026
  C        4.610      21.004     -14.888
  O        3.840      20.077     -15.107
  C        5.923      21.071     -15.548
  C        6.732      22.096     -15.275
  O       11.562      24.797     -19.058
  O       10.666      22.759     -17.831
  H        8.489      25.910     -12.556
  H       11.520      22.465     -18.202
  H        3.436      21.993     -13.556
  H        6.182      20.277     -16.235
  H        7.704      22.165     -15.751
  H        6.636      25.123     -14.027
  H        7.627      23.242     -12.105
  H        9.367      22.598     -13.580
  H        9.735      25.546     -14.293
  H       11.561      23.879     -14.965
  H       10.358      23.013     -15.897
  P       11.835      22.871     -12.505
  C       13.610      24.437     -11.448
  O       13.068      23.887     -12.628
  O       11.809      21.710     -13.442
  O       12.022      22.312     -11.009
  H       12.437      21.431     -11.059
  H       14.424      25.114     -11.720
  H       14.010      23.647     -10.807
  H       12.849      25.006     -10.907
  H        7.540      25.739     -19.220
  H        9.131      26.021     -19.884
  H        8.752      26.557     -18.264

 3  4  5  6  7  8  9  10  11  12  13  23  28  29  30  31  32 0
 6-311+G(2d,p)
 ****
 33  34 0
 6-311+G(2d,p)
 ****
 1  2  14  15  16  17  18  19  20  21  22  24  25  26  27 0
 3-21G
 ****
 35  36  37  38  39  40  41  42  43  44  45 0
 3-21G
 ****


