%nproc=1
%NoSave
%Mem=1900MB
#P OB98/GEN NMR

erre ene a

0 1
  C      618.275     -40.530    -645.722
  O      617.276     -41.450    -646.110
  H      619.000     -40.439    -646.534
  H      618.794     -40.897    -644.832
  H      617.845     -39.545    -645.524
  P      615.990     -41.633    -645.175
  C      614.126     -41.386    -646.949
  O      614.803     -40.795    -645.849
  C      612.750     -40.749    -647.148
  O      612.069     -40.699    -645.861
  C      612.794     -39.305    -647.697
  O      611.600     -39.112    -648.465
  C      612.757     -38.510    -646.400
  O      612.513     -37.142    -646.611
  C      611.691     -39.322    -645.645
  N      611.583     -39.031    -644.217
  C      610.316     -39.024    -643.655
  O      609.277     -39.251    -644.265
  N      610.262     -38.736    -642.310
  C      611.332     -38.482    -641.502
  O      611.229     -38.264    -640.300
  C      612.646     -38.495    -642.163
  C      612.712     -38.767    -643.464
  O      616.203     -41.374    -643.721
  O      615.543     -43.150    -645.441
  H      615.839     -43.713    -644.702
  H      612.536     -36.678    -645.743
  H      609.354     -38.737    -641.884
  H      613.516     -38.280    -641.551
  H      613.670     -38.793    -643.975
  H      610.711     -39.176    -646.112
  H      613.721     -38.569    -645.900
  H      613.668     -39.111    -648.316
  H      612.151     -41.398    -647.800
  H      614.011     -42.458    -646.743
  H      614.736     -41.267    -647.853
  P      611.602     -38.610    -649.990
  C      610.214     -40.592    -650.898
  O      611.453     -39.902    -650.941
  O      612.767     -37.742    -650.339
  O      610.218     -37.823    -650.179
  H      610.316     -37.166    -650.891
  H      610.245     -41.424    -651.571
  H      609.426     -39.929    -651.188
  H      610.036     -40.944    -649.903

 6  7  8  9  10  11  12  13  14  15  16  27  31  32  33  34  35 0
 6-311+G(2d,p)
 ****
 36  37 0
 6-311+G(2d,p)
 ****
 1  2  3  4  5  17  18  19  20  21  22  23  24  25 0
 3-21G
 ****
 26  28  29  30  38  39  40  41  42  43  44  45 0
 3-21G
 ****


