%nproc=1
%NoSave
%Mem=1900MB
#P OB98/GEN NMR

erre ene a

0 1
  C     -196.653     -19.006    -175.977
  O     -197.246     -18.864    -174.704
  H     -196.744     -20.049    -176.292
  H     -195.594     -18.745    -175.930
  H     -197.162     -18.372    -176.708
  P     -197.248     -17.393    -174.057
  C     -194.717     -17.448    -173.454
  O     -195.741     -16.858    -174.242
  C     -193.428     -16.628    -173.553
  O     -192.547     -16.992    -172.463
  C     -192.668     -16.850    -174.862
  O     -192.200     -15.593    -175.356
  C     -191.504     -17.741    -174.470
  O     -190.389     -17.592    -175.346
  C     -191.259     -17.325    -173.015
  N     -190.611     -18.386    -172.247
  C     -189.402     -18.064    -171.623
  O     -188.925     -16.933    -171.743
  N     -188.737     -19.037    -170.923
  C     -189.204     -20.246    -170.901
  N     -188.486     -21.172    -170.210
  C     -190.449     -20.644    -171.586
  C     -191.097     -19.673    -172.228
  O     -197.353     -17.691    -172.490
  O     -198.303     -16.472    -174.572
  H     -190.102     -16.652    -175.313
  H     -197.577     -16.875    -171.981
  H     -190.790     -21.667    -171.552
  H     -192.020     -19.874    -172.761
  H     -190.630     -16.426    -172.971
  H     -191.821     -18.791    -174.509
  H     -193.276     -17.325    -175.631
  H     -193.678     -15.570    -173.413
  H     -187.632     -20.866    -169.761
  H     -194.534     -18.465    -173.813
  H     -188.740     -22.148    -170.150
  H     -195.045     -17.489    -172.410
  P     -192.948     -15.029    -176.661
  C     -191.420     -16.139    -178.435
  O     -192.710     -16.084    -177.848
  O     -192.061     -13.766    -177.083
  O     -194.377     -14.668    -176.420
  H     -192.474     -12.940    -176.769
  H     -191.410     -16.881    -179.205
  H     -190.698     -16.392    -177.687
  H     -191.179     -15.185    -178.856

 6  7  8  9  10  11  12  13  14  15  16  26  30  31  32  33  35 0
 6-311+G(2d,p)
 ****
 37  38 0
 6-311+G(2d,p)
 ****
 1  2  3  4  5  17  18  19  20  21  22  23  24  25 0
 3-21G
 ****
 27  28  29  34  36  39  40  41  42  43  44  45  46 0
 3-21G
 ****


