%nproc=1
%NoSave
%Mem=1900MB
#P OB98/GEN NMR

erre ene a

0 1
  C       96.922     -59.529      67.124
  O       95.613     -59.054      66.856
  P       94.811     -58.340      68.044
  C       92.799     -59.076      69.517
  O       93.979     -59.468      68.830
  C       92.329     -60.177      70.469
  O       93.294     -60.335      71.544
  C       90.971     -59.889      71.117
  O       90.265     -61.126      71.306
  C       91.337     -59.360      72.491
  O       90.270     -59.534      73.420
  C       92.586     -60.192      72.791
  N       92.851     -58.669      77.604
  C       91.929     -59.500      76.997
  N       90.895     -59.910      77.759
  N       92.021     -59.900      75.757
  C       93.107     -59.405      75.113
  C       94.096     -58.586      75.611
  C       93.978     -58.144      76.982
  O       94.742     -57.382      77.573
  N       95.057     -58.326      74.666
  C       94.629     -58.944      73.583
  N       93.435     -59.585      73.794
  O       93.678     -57.516      67.266
  O       95.633     -57.438      68.900
  H       89.940     -60.447      73.303
  H       93.904     -56.566      67.265
  H       92.731     -58.378      78.560
  H       95.131     -58.944      72.624
  H       92.322     -61.198      73.139
  H       91.571     -58.291      72.431
  H       90.729     -59.583      78.702
  H       90.335     -59.196      70.554
  H       90.182     -60.484      77.329
  H       92.303     -61.126      69.920
  H       92.014     -58.872      68.789
  H       92.992     -58.152      70.075
  P       88.778     -61.189      70.702
  C       86.556     -59.926      71.219
  O       87.932     -60.094      71.510
  O       88.215     -62.584      71.251
  O       88.717     -61.092      69.213
  H       87.518     -62.923      70.658
  H       85.977     -60.186      72.109
  H       86.230     -60.558      70.387
  H       86.374     -58.883      70.966
  H       97.326     -59.978      66.241
  H       96.884     -60.256      67.908
  H       97.543     -58.712      67.425

 3  4  5  6  7  8  9  10  11  12  23  26  30  31 0
 6-311+G(2d,p)
 ****
 33  35  36  37  38 0
 6-311+G(2d,p)
 ****
 1  2  13  14  15  16  17  18  19  20  21  22  24  25 0
 3-21G
 ****
 27  28  29  32  34  39  40  41  42  43  44  45  46  47  48  49 0
 3-21G
 ****


