%nproc=1
%NoSave
%Mem=1900MB
#P OB98/GEN NMR

erre ene a

0 1
  C     -146.511     249.029     548.611
  O     -145.209     249.094     548.028
  P     -144.127     247.923     548.096
  C     -141.786     249.035     548.518
  O     -142.722     248.508     547.590
  C     -141.134     250.346     548.039
  O     -142.149     251.377     547.915
  C     -140.130     250.856     549.076
  O     -138.804     250.341     549.096
  C     -140.202     252.372     548.969
  O     -139.213     252.913     548.094
  C     -141.607     252.619     548.409
  N     -144.558     256.596     549.694
  C     -143.729     256.443     548.596
  N     -143.630     257.493     547.762
  N     -143.045     255.354     548.357
  C     -143.165     254.412     549.315
  C     -143.937     254.457     550.457
  C     -144.743     255.641     550.685
  O     -145.503     255.820     551.630
  N     -143.794     253.322     551.210
  C     -142.913     252.596     550.540
  N     -142.506     253.217     549.377
  O     -144.554     246.611     547.533
  O     -143.897     247.722     549.680
  H     -139.250     252.417     547.257
  H     -143.704     246.769     549.820
  H     -145.088     257.444     549.816
  H     -142.545     251.629     550.848
  H     -141.574     253.304     547.552
  H     -140.033     252.836     549.949
  H     -144.036     258.395     547.953
  H     -140.540     250.608     550.064
  H     -142.866     257.469     547.082
  H     -140.700     250.223     547.039
  H     -141.027     248.266     548.669
  H     -142.269     249.199     549.485
  P     -138.086     249.641     550.339
  C     -135.871     250.928     550.267
  O     -136.508     249.673     550.081
  O     -138.436     248.088     550.164
  O     -138.522     250.139     551.683
  H     -138.276     247.607     550.996
  H     -134.890     250.902     549.774
  H     -135.727     251.118     551.329
  H     -136.469     251.736     549.831
  H     -147.033     249.943     548.421
  H     -146.422     248.882     549.667
  H     -147.054     248.213     548.182

 3  4  5  6  7  8  9  10  11  12  23  26  30  31 0
 6-311+G(2d,p)
 ****
 33  35  36  37  38 0
 6-311+G(2d,p)
 ****
 1  2  13  14  15  16  17  18  19  20  21  22  24  25 0
 3-21G
 ****
 27  28  29  32  34  39  40  41  42  43  44  45  46  47  48  49 0
 3-21G
 ****


