%nproc=1
%NoSave
%Mem=1900MB
#P OB98/GEN NMR

erre ene a

0 1
  C      243.393      -6.863      15.151
  O      244.602      -7.341      14.597
  H      242.583      -7.042      14.439
  H      243.473      -5.787      15.324
  H      243.160      -7.375      16.088
  P      245.836      -7.548      15.599
  C      247.245      -5.958      17.091
  O      246.367      -6.079      15.983
  C      248.123      -4.714      16.945
  O      249.064      -4.936      15.848
  C      247.341      -3.426      16.634
  O      247.973      -2.328      17.305
  C      247.555      -3.255      15.141
  O      247.389      -1.904      14.721
  C      248.981      -3.779      14.996
  N      252.556      -3.338      11.501
  C      252.595      -3.097      12.858
  N      253.744      -2.602      13.362
  N      251.584      -3.316      13.661
  C      250.500      -3.831      13.031
  C      250.332      -4.109      11.696
  C      251.452      -3.845      10.814
  O      251.472      -4.019       9.601
  N      249.061      -4.561      11.446
  C      248.457      -4.534      12.622
  N      249.289      -4.096      13.614
  O      246.978      -8.119      14.632
  O      245.578      -8.456      16.754
  H      248.099      -1.367      15.131
  H      246.984      -9.095      14.668
  H      253.354      -3.136      10.924
  H      247.426      -4.799      12.802
  H      249.732      -3.050      15.333
  H      246.847      -3.882      14.585
  H      254.575      -2.434      12.815
  H      246.282      -3.471      16.911
  H      253.803      -2.457      14.365
  H      248.718      -4.595      17.857
  H      247.889      -6.844      17.140
  H      246.658      -5.902      18.015
  P      247.314      -1.800      18.668
  C      245.267      -0.344      19.351
  O      246.105      -0.809      18.305
  O      248.432      -0.812      19.251
  O      246.982      -2.884      19.640
  H      248.435      -0.853      20.225
  H      244.516       0.302      18.946
  H      245.854       0.195      20.065
  H      244.799      -1.178      19.831

 6  7  8  9  10  11  12  13  14  15  26  29  33  34 0
 6-311+G(2d,p)
 ****
 36  38  39  40  41 0
 6-311+G(2d,p)
 ****
 1  2  3  4  5  16  17  18  19  20  21  22  23  24  25 0
 3-21G
 ****
 27  28  30  31  32  35  37  42  43  44  45  46  47 0
 3-21G
 ****
 48  49 0
 3-21G
 ****


