%nproc=1
%NoSave
%Mem=1900MB
#P OB98/GEN NMR

erre ene a

0 1
  C     -304.915     181.590    -364.619
  O     -303.928     181.745    -365.619
  H     -304.802     182.392    -363.885
  H     -304.780     180.630    -364.112
  H     -305.920     181.646    -365.050
  P     -304.115     180.882    -366.958
  C     -303.201     178.608    -367.830
  O     -303.153     179.598    -366.810
  C     -302.805     177.241    -367.265
  O     -301.394     177.210    -366.956
  C     -303.530     176.868    -365.970
  O     -304.813     176.306    -366.242
  C     -302.587     175.820    -365.417
  O     -302.764     174.572    -366.122
  C     -301.208     176.418    -365.753
  N     -297.059     178.893    -364.196
  C     -297.243     178.081    -365.295
  N     -296.165     177.888    -366.094
  N     -298.381     177.497    -365.594
  C     -299.362     177.755    -364.692
  C     -299.298     178.543    -363.563
  C     -298.038     179.193    -363.264
  O     -297.831     179.942    -362.305
  N     -300.503     178.572    -362.899
  C     -301.284     177.782    -363.617
  N     -300.637     177.264    -364.716
  O     -303.384     181.778    -368.067
  O     -305.526     180.590    -367.341
  H     -301.914     174.091    -366.073
  H     -304.059     182.247    -368.593
  H     -296.164     179.319    -364.008
  H     -302.315     177.567    -363.389
  H     -300.461     175.649    -365.978
  H     -302.754     175.612    -364.357
  H     -295.251     178.286    -365.912
  H     -303.592     177.717    -365.273
  H     -296.273     177.293    -366.898
  H     -302.989     176.482    -368.044
  H     -302.507     178.881    -368.632
  H     -304.225     178.567    -368.234
  P     -305.872     176.252    -365.037
  C     -306.115     174.930    -362.819
  O     -305.325     175.182    -363.964
  O     -307.123     175.505    -365.704
  O     -306.277     177.578    -364.466
  H     -307.874     176.127    -365.808
  H     -305.628     174.203    -362.203
  H     -307.072     174.558    -363.121
  H     -306.243     175.838    -362.267

 6  7  8  9  10  11  12  13  14  15  26  29  33  34 0
 6-311+G(2d,p)
 ****
 36  38  39  40  41 0
 6-311+G(2d,p)
 ****
 1  2  3  4  5  16  17  18  19  20  21  22  23  24  25 0
 3-21G
 ****
 27  28  30  31  32  35  37  42  43  44  45  46  47 0
 3-21G
 ****
 48  49 0
 3-21G
 ****


