%nproc=1
%NoSave
%Mem=1900MB
#P OB98/GEN NMR

erre ene a

0 1
  C     -119.729     308.862       6.832
  O     -121.031     308.784       6.284
  P     -122.285     308.482       7.235
  C     -123.090     310.957       7.279
  O     -122.621     309.844       8.010
  C     -123.854     311.931       8.184
  O     -125.131     311.331       8.504
  C     -123.182     312.223       9.524
  O     -123.750     313.420      10.063
  C     -123.616     311.035      10.351
  O     -123.504     311.283      11.751
  C     -125.055     310.772       9.836
  N     -125.365     309.332       9.809
  C     -125.586     308.710      11.033
  O     -125.607     309.321      12.099
  N     -125.697     307.347      10.997
  C     -125.563     306.571       9.883
  O     -125.359     305.364       9.910
  C     -125.570     307.295       8.603
  C     -125.446     308.625       8.622
  O     -121.653     307.544       8.366
  O     -123.442     307.835       6.558
  H     -124.011     312.108      11.934
  H     -121.816     306.606       8.156
  H     -125.713     306.885      11.900
  H     -125.618     306.718       7.689
  H     -125.397     309.181       7.693
  H     -125.802     311.267      10.469
  H     -122.972     310.180      10.116
  H     -122.092     312.310       9.471
  H     -124.043     312.861       7.639
  H     -123.726     310.609       6.460
  H     -122.247     311.487       6.815
  P     -122.808     314.353      10.969
  C     -122.668     316.737      10.029
  O     -122.148     315.423       9.978
  O     -121.858     313.638      11.874
  O     -123.863     315.236      11.792
  H     -123.430     315.619      12.576
  H     -121.876     317.439       9.756
  H     -123.030     316.983      11.034
  H     -123.488     316.829       9.315
  H     -119.026     309.069       6.053
  H     -119.482     307.931       7.297
  H     -119.695     309.645       7.560

 3  4  5  6  7  8  9  10  11  12  13  23  28  29  30  31  32 0
 6-311+G(2d,p)
 ****
 33  34 0
 6-311+G(2d,p)
 ****
 1  2  14  15  16  17  18  19  20  21  22  24  25  26  27 0
 3-21G
 ****
 35  36  37  38  39  40  41  42  43  44  45 0
 3-21G
 ****


