%nproc=1
%NoSave
%Mem=1900MB
#P OB98/GEN NMR

erre ene a

0 1
  C      137.800    -108.983    -149.771
  O      138.296    -110.309    -149.973
  P      137.239    -111.437    -150.396
  C      135.575    -111.431    -152.399
  O      136.919    -111.278    -151.957
  C      135.537    -111.633    -153.915
  O      136.185    -110.548    -154.602
  C      136.269    -112.885    -154.368
  O      135.477    -114.035    -154.138
  C      136.515    -112.592    -155.844
  O      135.432    -113.058    -156.666
  C      136.611    -111.052    -155.881
  N      137.942    -110.579    -156.220
  C      138.327    -110.733    -157.557
  O      137.563    -111.265    -158.364
  N      139.574    -110.308    -157.935
  C      140.377    -109.795    -157.051
  N      141.602    -109.397    -157.483
  C      140.019    -109.642    -155.626
  C      138.800    -110.051    -155.281
  O      135.885    -110.955    -149.690
  O      137.622    -112.817    -149.966
  H      134.619    -112.685    -156.267
  H      135.348    -111.724    -149.427
  H      140.723    -109.217    -154.925
  H      138.453    -109.975    -154.256
  H      135.911    -110.644    -156.623
  H      137.419    -113.091    -156.204
  H      137.228    -112.970    -153.843
  H      134.486    -111.676    -154.234
  H      141.813    -109.521    -158.466
  H      134.987    -110.552    -152.126
  H      142.306    -108.993    -156.882
  H      135.127    -112.282    -151.876
  P      136.130    -115.235    -153.302
  C      136.568    -115.495    -150.786
  O      135.715    -114.953    -151.779
  O      137.682    -114.836    -153.300
  O      135.910    -116.621    -153.808
  H      138.210    -115.548    -152.895
  H      136.298    -115.062    -149.819
  H      137.611    -115.251    -150.999
  H      136.436    -116.579    -150.735
  H      138.608    -108.338    -149.495
  H      137.067    -108.991    -148.991
  H      137.354    -108.627    -150.676

 3  4  5  6  7  8  9  10  11  12  13  21  23  27  28  29  30  32 0
 6-311+G(2d,p)
 ****
 34  35 0
 6-311+G(2d,p)
 ****
 1  2  14  15  16  17  18  19  20  22  24  25  26 0
 3-21G
 ****
 31  33  36  37  38  39  40  41  42  43  44  45  46 0
 3-21G
 ****


