%nproc=1
%NoSave
%Mem=1900MB
#P OB98/GEN NMR

erre ene a

0 1
  C     -317.615    -550.560      26.375
  O     -318.990    -550.517      26.040
  H     -317.132    -551.317      25.750
  H     -317.501    -550.847      27.423
  H     -317.136    -549.597      26.201
  P     -319.872    -549.287      26.571
  C     -319.094    -547.805      24.600
  O     -319.194    -547.942      26.011
  C     -320.382    -547.207      24.019
  O     -320.492    -545.828      24.445
  C     -320.358    -547.203      22.486
  O     -321.669    -547.278      21.930
  C     -319.758    -545.844      22.163
  O     -320.086    -545.385      20.849
  C     -320.331    -544.984      23.283
  N     -320.012    -539.910      23.663
  C     -321.003    -540.681      23.085
  N     -322.045    -540.007      22.534
  N     -320.961    -541.987      23.028
  C     -319.826    -542.517      23.545
  C     -318.770    -541.853      24.129
  C     -318.842    -540.411      24.217
  O     -317.980    -539.677      24.703
  N     -317.791    -542.736      24.534
  C     -318.263    -543.920      24.199
  N     -319.502    -543.841      23.618
  O     -319.528    -549.223      28.136
  O     -321.348    -549.402      26.334
  H     -319.652    -545.986      20.218
  H     -320.239    -548.763      28.618
  H     -320.107    -538.910      23.707
  H     -317.741    -544.861      24.363
  H     -321.322    -544.602      23.012
  H     -318.666    -545.932      22.210
  H     -322.017    -539.011      22.390
  H     -319.749    -548.008      22.071
  H     -322.603    -540.527      21.849
  H     -321.255    -547.739      24.428
  H     -318.919    -548.806      24.195
  H     -318.231    -547.190      24.338
  P     -322.058    -548.562      21.048
  C     -323.533    -550.102      22.621
  O     -322.295    -549.817      22.006
  O     -320.708    -548.918      20.278
  O     -323.203    -548.340      20.102
  H     -320.824    -548.801      19.317
  H     -323.442    -550.990      23.212
  H     -324.279    -550.249      21.869
  H     -323.816    -549.283      23.249

 6  7  8  9  10  11  12  13  14  15  26  29  33  34 0
 6-311+G(2d,p)
 ****
 36  38  39  40  41 0
 6-311+G(2d,p)
 ****
 1  2  3  4  5  16  17  18  19  20  21  22  23  24  25 0
 3-21G
 ****
 27  28  30  31  32  35  37  42  43  44  45  46  47 0
 3-21G
 ****
 48  49 0
 3-21G
 ****


