%nproc=1
%NoSave
%Mem=1900MB
#P OB98/GEN NMR

erre ene a

0 1
  C      159.410     809.223     714.221
  O      159.136     809.321     715.602
  H      159.027     808.267     713.860
  H      160.494     809.256     714.052
  H      158.927     810.034     713.670
  P      159.447     810.699     716.361
  C      158.363     812.074     718.255
  O      158.289     810.904     717.446
  C      157.150     812.156     719.177
  O      155.927     812.120     718.391
  C      157.037     810.986     720.144
  O      157.968     811.122     721.223
  C      155.569     811.099     720.548
  O      155.380     812.086     721.569
  C      154.914     811.525     719.221
  N      154.251     810.406     718.549
  C      153.143     809.878     719.171
  O      152.693     810.297     720.243
  N      152.574     808.782     718.567
  C      153.095     808.107     717.507
  O      152.712     807.005     717.146
  C      154.240     808.750     716.835
  C      154.771     809.849     717.388
  O      159.717     811.876     715.480
  O      160.725     810.352     717.269
  H      161.530     810.706     716.842
  H      155.605     811.643     722.407
  H      151.795     808.361     719.043
  H      154.648     808.280     715.931
  H      155.638     810.329     716.932
  H      154.164     812.322     719.405
  H      155.206     810.137     720.933
  H      157.203     810.044     719.624
  H      157.183     813.130     719.708
  H      158.385     812.958     717.593
  H      159.298     812.057     718.832
  P      157.891     810.130     722.474
  C      159.498     809.129     724.227
  O      159.365     810.008     723.110
  O      157.210     808.816     722.193
  O      157.098     810.948     723.591
  H      156.375     810.408     723.939
  H      160.514     809.129     724.562
  H      159.219     808.138     723.936
  H      158.861     809.461     725.020

 6  7  8  9  10  11  12  13  14  15  16  27  31  32  33  34  35 0
 6-311+G(2d,p)
 ****
 36  37 0
 6-311+G(2d,p)
 ****
 1  2  3  4  5  17  18  19  20  21  22  23  24  25 0
 3-21G
 ****
 26  28  29  30  38  39  40  41  42  43  44  45 0
 3-21G
 ****


