%nproc=1
%NoSave
%Mem=1900MB
#P OB98/GEN NMR

erre ene a

0 1
  C       15.082    -816.644    -507.813
  O       15.609    -816.506    -506.509
  H       15.227    -817.672    -508.146
  H       15.596    -815.974    -508.509
  H       14.007    -816.424    -507.814
  P       15.619    -815.053    -505.836
  C       13.839    -813.229    -505.400
  O       14.085    -814.590    -505.716
  C       12.337    -812.963    -505.250
  O       11.659    -813.410    -506.460
  C       11.694    -813.714    -504.067
  O       10.586    -812.927    -503.607
  C       11.193    -814.977    -504.752
  O       10.278    -815.675    -503.938
  C       10.674    -814.391    -506.067
  N       10.478    -815.408    -507.088
  C        9.159    -815.763    -507.364
  O        8.233    -815.234    -506.745
  N        8.913    -816.726    -508.311
  C        9.905    -817.334    -508.885
  N        9.599    -818.289    -509.799
  C       11.321    -817.025    -508.581
  C       11.532    -816.057    -507.689
  O       16.533    -814.055    -506.466
  O       16.026    -815.338    -504.313
  H       10.658    -815.848    -503.050
  H       16.956    -815.075    -504.166
  H       12.114    -817.572    -509.070
  H       12.538    -815.766    -507.403
  H        9.722    -813.862    -505.911
  H       12.027    -815.664    -504.942
  H       12.391    -813.906    -503.248
  H       12.170    -811.886    -505.165
  H        8.613    -818.471    -509.969
  H       14.246    -812.622    -506.216
  H       10.284    -818.838    -510.290
  H       14.355    -812.959    -504.472
  P       10.676    -811.997    -502.303
  C       11.304    -809.557    -501.719
  O       10.934    -810.476    -502.746
  O       11.627    -812.492    -501.257
  O        9.179    -811.954    -501.718
  H        9.219    -811.865    -500.750
  H       11.445    -808.585    -502.144
  H       12.215    -809.882    -501.261
  H       10.529    -809.515    -500.982

 6  7  8  9  10  11  12  13  14  15  16  26  30  31  32  33  35 0
 6-311+G(2d,p)
 ****
 37  38 0
 6-311+G(2d,p)
 ****
 1  2  3  4  5  17  18  19  20  21  22  23  24  25 0
 3-21G
 ****
 27  28  29  34  36  39  40  41  42  43  44  45  46 0
 3-21G
 ****


