%nproc=1
%NoSave
%Mem=1900MB
#P OB98/GEN NMR

erre ene a

0 1
  C     -137.059     -76.944    -233.846
  O     -137.046     -77.841    -232.753
  H     -137.997     -77.038    -234.399
  H     -136.975     -75.924    -233.463
  H     -136.212     -77.143    -234.509
  P     -137.130     -79.404    -233.107
  C     -139.622     -79.284    -232.395
  O     -138.389     -79.980    -232.295
  C     -140.775     -80.276    -232.514
  O     -142.034     -79.574    -232.524
  C     -140.764     -81.116    -233.788
  O     -139.857     -82.204    -233.693
  C     -142.207     -81.596    -233.822
  O     -142.377     -82.694    -232.906
  C     -142.967     -80.361    -233.311
  N     -146.897     -79.669    -236.512
  C     -146.695     -80.549    -235.509
  N     -145.632     -80.660    -234.687
  C     -144.717     -79.718    -234.969
  C     -144.789     -78.739    -235.946
  C     -145.941     -78.736    -236.749
  N     -146.104     -77.870    -237.819
  N     -143.646     -77.962    -235.945
  C     -142.892     -78.478    -234.997
  N     -143.498     -79.534    -234.376
  O     -135.864     -80.011    -232.332
  O     -137.095     -79.728    -234.563
  H     -142.315     -82.321    -232.007
  H     -135.120     -80.100    -232.955
  H     -147.494     -81.266    -235.347
  H     -141.905     -78.124    -234.731
  H     -143.799     -80.632    -232.651
  H     -142.520     -81.946    -234.809
  H     -140.570     -80.503    -234.674
  H     -140.761     -80.918    -231.624
  H     -139.607     -78.640    -233.281
  H     -146.688     -78.249    -238.561
  H     -145.259     -77.391    -238.103
  H     -139.747     -78.662    -231.504
  P     -138.701     -82.310    -234.799
  C     -139.802     -84.467    -235.707
  O     -138.614     -83.857    -235.222
  O     -137.368     -82.071    -233.946
  O     -138.804     -81.337    -235.924
  H     -136.863     -81.325    -234.324
  H     -139.604     -85.490    -235.950
  H     -140.136     -83.951    -236.582
  H     -140.560     -84.420    -234.954

 6  7  8  9  10  11  12  13  14  15  25  28  32  33  34  35 0
 6-311+G(2d,p)
 ****
 36  39  40 0
 6-311+G(2d,p)
 ****
 1  2  3  4  5  16  17  18  19  20  21  22  23  24 0
 3-21G
 ****
 26  27  29  30  31  37  38  41  42  43  44  45  46  47  48 0
 3-21G
 ****


