%nproc=1
%NoSave
%Mem=1900MB
#P OB98/GEN NMR

erre ene a

0 1
  C      159.397    -177.110     448.282
  O      159.080    -176.725     449.603
  H      159.842    -176.255     447.763
  H      158.496    -177.420     447.744
  H      160.123    -177.932     448.293
  P      158.314    -177.820     450.500
  C      156.102    -176.891     449.480
  O      156.915    -178.027     449.738
  C      154.944    -177.283     448.564
  O      154.006    -176.197     448.428
  C      155.368    -177.644     447.139
  O      155.902    -178.949     447.043
  C      154.034    -177.518     446.422
  O      153.220    -178.669     446.719
  C      153.454    -176.243     447.077
  N      153.779    -175.022     446.344
  C      152.750    -174.468     445.573
  O      151.646    -175.004     445.512
  N      153.014    -173.327     444.844
  C      154.186    -172.783     444.893
  N      154.396    -171.659     444.141
  C      155.286    -173.320     445.707
  C      155.024    -174.431     446.398
  O      157.884    -177.005     451.808
  O      159.069    -179.078     450.781
  H      152.415    -178.591     446.173
  H      157.298    -177.562     452.373
  H      156.258    -172.842     445.710
  H      155.785    -174.888     447.021
  H      152.366    -176.319     447.179
  H      154.140    -177.469     445.335
  H      156.059    -176.894     446.728
  H      154.406    -178.120     449.040
  H      153.643    -171.348     443.544
  H      156.718    -176.122     449.000
  H      155.315    -171.278     443.973
  H      155.700    -176.490     450.419
  P      156.730    -179.312     445.707
  C      155.011    -180.972     444.673
  O      155.650    -179.700     444.575
  O      157.402    -180.717     446.077
  O      157.745    -178.288     445.291
  H      158.312    -180.776     445.709
  H      154.325    -181.090     443.860
  H      154.480    -181.034     445.600
  H      155.749    -181.746     444.633

 6  7  8  9  10  11  12  13  14  15  16  26  30  31  32  33  35 0
 6-311+G(2d,p)
 ****
 37  38 0
 6-311+G(2d,p)
 ****
 1  2  3  4  5  17  18  19  20  21  22  23  24  25 0
 3-21G
 ****
 27  28  29  34  36  39  40  41  42  43  44  45  46 0
 3-21G
 ****


