%nproc=1
%NoSave
%Mem=1900MB
#P OB98/GEN NMR

erre ene a

0 1
  C      216.122    -135.808    -897.590
  O      216.384    -137.082    -898.150
  P      216.164    -138.358    -897.200
  C      218.224    -137.809    -895.710
  O      217.616    -138.728    -896.620
  C      219.669    -138.237    -895.430
  O      219.683    -139.444    -894.650
  C      220.473    -138.550    -896.690
  O      220.893    -137.357    -897.320
  C      221.618    -139.378    -896.100
  O      222.683    -138.529    -895.650
  C      220.946    -140.099    -894.920
  N      220.756    -141.519    -895.170
  C      221.933    -142.288    -895.240
  O      223.032    -141.751    -895.110
  N      221.822    -143.635    -895.490
  C      220.651    -144.164    -895.660
  N      220.597    -145.499    -895.900
  C      219.394    -143.390    -895.610
  C      219.526    -142.086    -895.370
  O      215.865    -139.541    -898.230
  O      215.076    -138.201    -896.190
  H      222.966    -138.006    -896.430
  H      215.325    -140.241    -897.820
  H      218.446    -143.876    -895.760
  H      218.645    -141.436    -895.310
  H      221.541    -139.996    -894.010
  H      222.049    -140.045    -896.840
  H      219.890    -139.169    -897.370
  H      220.154    -137.436    -894.850
  H      221.477    -146.003    -895.930
  H      217.673    -137.803    -894.770
  H      219.739    -146.016    -896.020
  H      218.188    -136.807    -896.150
  P      220.687    -137.248    -898.910
  C      223.063    -138.158    -899.330
  O      222.176    -137.059    -899.490
  O      220.082    -135.779    -899.070
  O      219.847    -138.295    -899.560
  H      219.821    -135.623    -900.000
  H      223.964    -137.957    -899.910
  H      222.602    -139.075    -899.710
  H      223.320    -138.264    -898.280
  H      216.307    -135.051    -898.323
  H      216.761    -135.651    -896.746
  H      215.100    -135.759    -897.277

 3  4  5  6  7  8  9  10  11  12  13  21  23  27  28  29  30  32 0
 6-311+G(2d,p)
 ****
 34  35 0
 6-311+G(2d,p)
 ****
 1  2  14  15  16  17  18  19  20  22  24  25  26 0
 3-21G
 ****
 31  33  36  37  38  39  40  41  42  43  44  45  46 0
 3-21G
 ****


