%nproc=1
%NoSave
%Mem=1900MB
#P OB98/GEN NMR

erre ene a

0 1
  C        7.765     110.068    -137.273
  O        9.164     109.914    -137.121
  H        7.298     109.080    -137.265
  H        7.538     110.555    -138.230
  H        7.360     110.659    -136.446
  P       10.043     111.258    -137.145
  C       11.835     112.221    -135.539
  O       10.786     111.276    -135.722
  C       12.343     112.180    -134.098
  O       11.274     112.484    -133.183
  C       12.909     110.826    -133.665
  O       14.255     110.691    -134.085
  C       12.801     110.941    -132.153
  O       13.919     111.700    -131.648
  C       11.495     111.737    -131.959
  N        7.880     110.603    -128.491
  C        9.029     111.318    -128.389
  N        9.966     111.528    -129.338
  C        9.632     110.932    -130.493
  C        8.494     110.169    -130.737
  C        7.585     110.014    -129.674
  N        6.417     109.288    -129.778
  N        8.481     109.707    -132.040
  C        9.565     110.230    -132.586
  N       10.313     110.945    -131.681
  O        9.313     112.501    -137.525
  O       11.222     110.831    -138.146
  H       13.879     112.583    -132.065
  H       11.503     109.916    -137.970
  H        9.216     111.768    -127.422
  H        9.844     110.138    -133.630
  H       11.584     112.468    -131.141
  H       12.828     109.971    -131.652
  H       12.277     109.998    -134.009
  H       13.103     112.969    -133.988
  H       11.479     113.230    -135.778
  H        5.934     109.074    -128.922
  H        6.274     108.751    -130.617
  H       12.639     111.960    -136.234
  P       15.191     109.522    -133.501
  C       17.495     108.637    -134.232
  O       16.282     109.257    -134.649
  O       14.452     108.321    -133.019
  O       16.045     110.236    -132.354
  H       16.444     109.559    -131.769
  H       18.140     108.512    -135.076
  H       17.278     107.681    -133.804
  H       17.978     109.253    -133.502

 6  7  8  9  10  11  12  13  14  15  25  28  32  33  34  35 0
 6-311+G(2d,p)
 ****
 36  39  40 0
 6-311+G(2d,p)
 ****
 1  2  3  4  5  16  17  18  19  20  21  22  23  24 0
 3-21G
 ****
 26  27  29  30  31  37  38  41  42  43  44  45  46  47 0
 3-21G
 ****
 48 0
 3-21G
 ****


