%nproc=1
%NoSave
%Mem=1900MB
#P OB98/GEN NMR

erre ene a

0 1
  C      434.857    -219.369       5.590
  O      435.383    -220.480       6.329
  P      436.930    -220.852       6.134
  C      438.861    -221.739       7.637
  O      437.462    -221.555       7.472
  C      439.163    -222.388       8.991
  O      438.643    -221.605      10.087
  C      438.552    -223.770       9.155
  O      439.350    -224.771       8.540
  C      438.580    -223.928      10.667
  O      439.905    -224.308      11.096
  C      438.258    -222.509      11.148
  N      434.755    -222.331      14.884
  C      436.079    -222.598      14.901
  N      436.941    -222.645      13.861
  C      436.311    -222.362      12.713
  C      434.971    -222.071      12.534
  C      434.172    -222.062      13.692
  N      432.824    -221.791      13.667
  N      434.687    -221.848      11.205
  C      435.844    -221.984      10.590
  N      436.853    -222.306      11.454
  O      437.652    -219.421       6.159
  O      437.221    -221.585       4.867
  H      439.881    -224.376      12.064
  H      438.417    -219.429       5.553
  H      436.506    -222.801      15.878
  H      435.996    -221.858       9.525
  H      438.827    -222.233      12.044
  H      437.899    -224.706      11.024
  H      437.516    -223.787       8.797
  H      440.253    -222.451       9.101
  H      439.379    -220.777       7.559
  H      432.317    -221.772      14.538
  H      432.382    -221.567      12.782
  H      439.240    -222.354       6.813
  P      438.866    -225.325       7.112
  C      440.406    -226.402       5.320
  O      439.967    -226.396       6.665
  O      439.111    -224.076       6.141
  O      437.448    -225.790       7.083
  H      438.458    -224.090       5.411
  H      441.343    -226.957       5.261
  H      440.572    -225.390       4.954
  H      439.659    -226.903       4.694
  H      433.820    -219.245       5.823
  H      434.968    -219.553       4.542
  H      435.391    -218.480       5.854

 3  4  5  6  7  8  9  10  11  12  22  25  29  30  31  32 0
 6-311+G(2d,p)
 ****
 33  36  37 0
 6-311+G(2d,p)
 ****
 1  2  13  14  15  16  17  18  19  20  21  23  24  26 0
 3-21G
 ****
 27  28  34  35  38  39  40  41  42  43  44  45  46  47  48 0
 3-21G
 ****


