%nproc=1
%NoSave
%Mem=1900MB
#P OB98/GEN NMR

erre ene a

0 1
  C        1.402    -891.360     642.547
  O        1.971    -891.720     641.290
  H        1.415    -890.260     642.607
  H        2.005    -891.770     643.357
  H        0.372    -891.700     642.620
  P        1.999    -893.270     640.876
  C        4.194    -893.640     642.189
  O        2.835    -894.050     642.024
  C        4.469    -893.300     643.648
  O        3.618    -894.140     644.483
  C        5.922    -893.530     644.070
  O        6.303    -892.520     644.992
  C        5.893    -894.870     644.790
  O        6.922    -895.010     645.759
  C        4.476    -894.830     645.419
  N        3.387    -898.150     649.071
  C        3.822    -896.830     649.153
  N        4.031    -896.340     650.395
  N        4.033    -896.090     648.100
  C        3.785    -896.690     646.931
  C        3.352    -898.000     646.698
  C        3.115    -898.830     647.870
  O        2.744    -900.000     647.891
  N        3.236    -898.260     645.368
  C        3.614    -897.140     644.771
  N        3.959    -896.170     645.669
  O        2.444    -893.560     639.482
  O        0.486    -893.760     641.138
  H        6.816    -894.280     646.396
  H       -0.006    -893.800     640.295
  H        3.237    -898.690     649.894
  H        3.651    -896.990     643.709
  H        4.460    -894.310     646.380
  H        5.956    -895.700     644.069
  H        3.853    -896.880     651.235
  H        6.617    -893.570     643.205
  H        4.326    -895.360     650.483
  H        4.172    -892.260     643.823
  H        4.363    -892.760     641.565
  H        4.856    -894.460     641.836
  P        7.157    -891.260     644.426
  C        9.376    -891.950     645.502
  O        8.680    -891.690     644.279
  O        6.895    -889.950     645.128
  O        6.649    -891.160     642.880
  H        6.684    -890.240     642.592
  H       10.386    -892.229     645.285
  H        8.890    -892.746     646.026
  H        9.372    -891.069     646.109

 6  7  8  9  10  11  12  13  14  15  26  29  33  34 0
 6-311+G(2d,p)
 ****
 36  38  39  40  41 0
 6-311+G(2d,p)
 ****
 1  2  3  4  5  16  17  18  19  20  21  22  23  24  25 0
 3-21G
 ****
 27  28  30  31  32  35  37  42  43  44  45  46  47 0
 3-21G
 ****
 48  49 0
 3-21G
 ****


