%nproc=1
%NoSave
%Mem=1900MB
#P OB98/GEN NMR

erre ene a

0 1
  C     -518.619    -270.565     196.713
  O     -517.588    -270.408     197.670
  P     -517.127    -271.629     198.589
  C     -518.026    -270.504     200.788
  O     -518.007    -271.617     199.922
  C     -518.509    -270.956     202.172
  O     -519.874    -271.417     202.093
  C     -517.657    -272.098     202.716
  O     -516.631    -271.596     203.560
  C     -518.676    -272.952     203.452
  O     -518.942    -272.410     204.754
  C     -519.919    -272.800     202.541
  N     -520.021    -273.661     201.349
  C     -520.366    -275.002     201.494
  O     -520.631    -275.524     202.570
  N     -520.374    -275.746     200.336
  C     -520.119    -275.268     199.084
  O     -519.894    -275.974     198.105
  C     -520.034    -273.811     198.964
  C     -519.962    -273.090     200.084
  O     -515.680    -271.172     199.099
  O     -517.088    -272.961     197.918
  H     -519.681    -272.918     205.134
  H     -514.979    -271.591     198.567
  H     -520.487    -276.746     200.457
  H     -519.971    -273.380     197.975
  H     -519.860    -272.008     200.027
  H     -520.843    -272.934     203.116
  H     -518.301    -273.962     203.610
  H     -517.235    -272.688     201.890
  H     -518.484    -270.098     202.857
  H     -518.686    -269.727     200.386
  H     -517.024    -270.069     200.861
  P     -515.297    -272.454     203.780
  C     -516.115    -273.018     206.142
  O     -515.673    -273.538     204.903
  O     -514.058    -271.664     204.033
  O     -515.187    -273.311     202.428
  H     -514.567    -272.878     201.808
  H     -516.504    -273.840     206.749
  H     -516.911    -272.282     205.990
  H     -515.279    -272.555     206.672
  H     -518.777    -269.637     196.204
  H     -519.522    -270.860     197.206
  H     -518.337    -271.317     196.005

 3  4  5  6  7  8  9  10  11  12  13  23  28  29  30  31  32 0
 6-311+G(2d,p)
 ****
 33  34 0
 6-311+G(2d,p)
 ****
 1  2  14  15  16  17  18  19  20  21  22  24  25  26  27 0
 3-21G
 ****
 35  36  37  38  39  40  41  42  43  44  45 0
 3-21G
 ****


