%nproc=1
%NoSave
%Mem=1900MB
#P OB98/GEN NMR

erre ene a

0 1
  C       46.941      43.959     -21.531
  O       47.240      44.500     -20.261
  H       45.957      43.486     -21.485
  H       47.680      43.201     -21.802
  H       46.917      44.743     -22.292
  P       48.574      45.371     -20.086
  C       46.992      47.394     -20.287
  O       48.249      46.836     -20.648
  C       47.192      48.789     -19.700
  O       48.056      49.572     -20.552
  C       45.904      49.592     -19.564
  O       45.142      49.139     -18.464
  C       46.466      50.998     -19.430
  O       46.935      51.242     -18.096
  C       47.652      50.954     -20.423
  N       47.323      51.532     -21.727
  C       47.765      52.832     -21.950
  O       48.392      53.483     -21.118
  N       47.417      53.380     -23.156
  C       46.614      52.799     -24.094
  O       46.150      53.405     -25.054
  C       46.241      51.400     -23.837
  C       46.593      50.844     -22.676
  O       49.824      44.753     -20.614
  O       48.661      45.607     -18.503
  H       49.312      44.989     -18.121
  H       47.036      52.210     -18.010
  H       47.692      54.339     -23.309
  H       45.657      50.882     -24.587
  H       46.303      49.824     -22.452
  H       48.513      51.500     -20.016
  H       45.723      51.766     -19.653
  H       45.323      49.530     -20.492
  H       47.687      48.682     -18.726
  H       46.527      46.747     -19.535
  H       46.349      47.433     -21.171
  P       43.546      49.242     -18.463
  C       43.544      46.732     -18.974
  O       42.966      47.993     -19.282
  O       42.997      50.565     -18.884
  O       43.130      48.907     -16.953
  H       42.558      49.623     -16.613
  H       43.086      45.974     -19.574
  H       43.387      46.511     -17.939
  H       44.594      46.762     -19.177

 6  7  8  9  10  11  12  13  14  15  16  27  31  32  33  34  35 0
 6-311+G(2d,p)
 ****
 36  37 0
 6-311+G(2d,p)
 ****
 1  2  3  4  5  17  18  19  20  21  22  23  24  25 0
 3-21G
 ****
 26  28  29  30  38  39  40  41  42  43  44  45 0
 3-21G
 ****


