%nproc=1
%NoSave
%Mem=1900MB
#P OB98/GEN NMR

erre ene a

0 1
  C      -41.836     -64.339    -152.041
  O      -41.296     -65.532    -151.506
  H      -42.402     -63.827    -151.259
  H      -42.509     -64.570    -152.871
  H      -41.031     -63.682    -152.386
  P      -40.475     -66.461    -152.526
  C      -42.615     -67.829    -153.046
  O      -41.549     -67.048    -153.566
  C      -43.382     -68.507    -154.179
  O      -44.171     -67.545    -154.909
  C      -42.498     -69.218    -155.200
  O      -42.149     -70.516    -154.750
  C      -43.414     -69.242    -156.416
  O      -44.380     -70.311    -156.315
  C      -44.106     -67.874    -156.325
  N      -43.508     -65.739    -160.863
  C      -44.204     -66.876    -160.496
  N      -44.810     -67.564    -161.490
  N      -44.289     -67.310    -159.267
  C      -43.588     -66.556    -158.385
  C      -42.861     -65.414    -158.624
  C      -42.818     -64.915    -159.981
  O      -42.289     -63.872    -160.356
  N      -42.307     -64.927    -157.466
  C      -42.673     -65.793    -156.539
  N      -43.446     -66.803    -157.048
  O      -40.088     -67.739    -151.638
  O      -39.262     -65.837    -153.129
  H      -45.009     -70.106    -155.603
  H      -39.192     -68.033    -151.888
  H      -43.502     -65.436    -161.821
  H      -42.411     -65.728    -155.490
  H      -45.136     -67.914    -156.697
  H      -42.854     -69.419    -157.336
  H      -44.542     -67.452    -162.458
  H      -41.607     -68.623    -155.429
  H      -45.255     -68.434    -161.229
  H      -44.086     -69.216    -153.719
  H      -43.295     -67.175    -152.489
  H      -42.210     -68.586    -152.368
  P      -40.678     -71.062    -155.081
  C      -41.616     -72.630    -156.928
  O      -40.682     -71.613    -156.591
  O      -40.583     -72.393    -154.194
  O      -39.573     -70.116    -154.749
  H      -40.010     -72.232    -153.419
  H      -41.501     -72.893    -157.959
  H      -42.610     -72.271    -156.761
  H      -41.441     -73.492    -156.318

 6  7  8  9  10  11  12  13  14  15  26  29  33  34 0
 6-311+G(2d,p)
 ****
 36  38  39  40  41 0
 6-311+G(2d,p)
 ****
 1  2  3  4  5  16  17  18  19  20  21  22  23  24  25 0
 3-21G
 ****
 27  28  30  31  32  35  37  42  43  44  45  46  47 0
 3-21G
 ****
 48  49 0
 3-21G
 ****


