%nproc=1
%NoSave
%Mem=1900MB
#P OB98/GEN NMR

erre ene a

0 1
  C       75.248     272.853      -9.984
  O       74.690     273.525     -11.096
  H       75.195     273.514      -9.113
  H       76.296     272.607     -10.176
  H       74.684     271.940      -9.773
  P       74.776     272.764     -12.508
  C       76.957     271.456     -13.090
  O       76.352     272.710     -12.812
  C       78.438     271.650     -13.394
  O       79.129     272.174     -12.238
  C       79.179     270.362     -13.757
  O       78.943     269.935     -15.088
  C       80.617     270.825     -13.558
  O       81.004     271.670     -14.654
  C       80.482     271.630     -12.247
  N       80.718     270.821     -11.051
  C       81.254     271.483      -9.938
  O       81.508     272.684      -9.986
  N       81.523     270.755      -8.807
  C       81.261     269.483      -8.771
  N       81.555     268.817      -7.620
  C       80.691     268.750      -9.910
  C       80.444     269.466     -11.005
  O       74.253     273.861     -13.550
  O       74.073     271.448     -12.587
  H       80.312     272.351     -14.738
  H       74.404     273.544     -14.477
  H       80.502     267.685      -9.841
  H       80.023     268.995     -11.887
  H       81.174     272.481     -12.238
  H       81.332     270.005     -13.516
  H       78.964     269.559     -13.044
  H       78.521     272.394     -14.194
  H       82.006     269.338      -6.876
  H       76.447     271.013     -13.954
  H       81.531     267.808      -7.548
  H       76.843     270.787     -12.233
  P       79.411     268.442     -15.473
  C       81.563     267.133     -14.829
  O       80.991     268.372     -15.220
  O       79.292     268.431     -17.064
  O       78.609     267.351     -14.837
  H       79.023     267.548     -17.389
  H       82.619     267.252     -14.701
  H       81.376     266.399     -15.585
  H       81.126     266.814     -13.906

 6  7  8  9  10  11  12  13  14  15  16  26  30  31  32  33  35 0
 6-311+G(2d,p)
 ****
 37  38 0
 6-311+G(2d,p)
 ****
 1  2  3  4  5  17  18  19  20  21  22  23  24  25 0
 3-21G
 ****
 27  28  29  34  36  39  40  41  42  43  44  45  46 0
 3-21G
 ****


