%nproc=1
%NoSave
%Mem=1900MB
#P OB98/GEN NMR

erre ene a

0 1
  C     -299.861     344.968     227.551
  O     -300.934     344.101     227.241
  H     -299.814     345.758     226.794
  H     -298.914     344.420     227.544
  H     -300.017     345.425     228.532
  P     -301.099     342.804     228.177
  C     -301.458     341.228     226.125
  O     -300.634     341.593     227.226
  C     -300.870     340.017     225.412
  O     -299.685     340.387     224.673
  C     -300.425     338.891     226.342
  O     -301.501     338.102     226.826
  C     -299.536     338.102     225.390
  O     -300.352     337.369     224.461
  C     -298.776     339.252     224.687
  N     -297.520     339.604     225.358
  C     -296.443     338.728     225.181
  O     -296.567     337.707     224.498
  N     -295.259     339.000     225.815
  C     -295.143     340.065     226.543
  N     -293.943     340.280     227.153
  C     -296.243     341.027     226.748
  C     -297.387     340.738     226.133
  O     -302.684     342.602     228.251
  O     -300.416     342.862     229.500
  H     -299.761     337.068     223.749
  H     -302.894     341.737     228.684
  H     -296.106     341.896     227.374
  H     -298.243     341.398     226.235
  H     -298.555     338.996     223.645
  H     -298.898     337.380     225.897
  H     -299.816     339.267     227.169
  H     -301.612     339.661     224.682
  H     -293.223     339.575     227.045
  H     -301.512     342.080     225.439
  H     -293.800     340.996     227.855
  H     -302.466     340.987     226.476
  P     -301.210     337.157     228.087
  C     -301.640     334.954     226.765
  O     -300.716     335.745     227.511
  O     -302.674     336.841     228.657
  O     -300.327     337.762     229.137
  H     -302.658     336.752     229.629
  H     -301.163     334.049     226.452
  H     -301.965     335.501     225.905
  H     -302.485     334.719     227.378

 6  7  8  9  10  11  12  13  14  15  16  26  30  31  32  33  35 0
 6-311+G(2d,p)
 ****
 37  38 0
 6-311+G(2d,p)
 ****
 1  2  3  4  5  17  18  19  20  21  22  23  24  25 0
 3-21G
 ****
 27  28  29  34  36  39  40  41  42  43  44  45  46 0
 3-21G
 ****


