%nproc=1
%NoSave
%Mem=1900MB
#P OB98/GEN NMR

erre ene a

0 1
  C     -185.708    -163.766     -84.115
  O     -185.718    -163.262     -85.454
  P     -185.956    -161.683     -85.645
  C     -185.047    -161.655     -88.100
  O     -186.147    -161.457     -87.226
  C     -184.980    -163.114     -88.568
  O     -186.287    -163.534     -89.066
  C     -183.956    -163.374     -89.676
  O     -183.386    -164.667     -89.420
  C     -184.807    -163.420     -90.931
  O     -184.173    -164.121     -91.989
  C     -186.080    -164.079     -90.386
  N     -187.243    -163.862     -91.245
  C     -187.744    -164.972     -91.914
  O     -187.208    -166.079     -91.872
  N     -188.862    -164.757     -92.677
  C     -189.462    -163.550     -92.890
  O     -190.464    -163.411     -93.583
  C     -188.820    -162.391     -92.246
  C     -187.756    -162.599     -91.466
  O     -184.500    -161.105     -85.336
  O     -187.051    -161.150     -84.784
  H     -183.778    -161.672     -85.658
  H     -184.837    -164.331     -92.675
  H     -189.260    -165.552     -93.146
  H     -189.234    -161.410     -92.440
  H     -187.244    -161.769     -90.998
  H     -185.932    -165.157     -90.269
  H     -185.019    -162.397     -91.273
  H     -183.164    -162.624     -89.711
  H     -184.752    -163.741     -87.697
  H     -184.115    -161.408     -87.585
  H     -185.137    -160.970     -88.949
  P     -182.071    -164.753     -88.489
  C     -181.979    -167.202     -87.583
  O     -181.553    -166.267     -88.544
  O     -182.749    -164.652     -87.040
  O     -181.061    -163.681     -88.733
  H     -183.512    -165.242     -86.936
  H     -181.711    -168.209     -87.928
  H     -183.063    -167.165     -87.444
  H     -181.478    -167.016     -86.630
  H     -185.541    -164.823     -84.133
  H     -186.650    -163.561     -83.650
  H     -184.926    -163.291     -83.561

 3  4  5  6  7  8  9  10  11  12  13  24  28  29  30  31  32 0
 6-311+G(2d,p)
 ****
 33  34 0
 6-311+G(2d,p)
 ****
 1  2  14  15  16  17  18  19  20  21  22  23  25  26  27 0
 3-21G
 ****
 35  36  37  38  39  40  41  42  43  44  45 0
 3-21G
 ****


