%nproc=1
%NoSave
%Mem=1900MB
#P OB98/GEN NMR

erre ene a

0 1
  C      449.620    -246.379     370.138
  O      450.928    -245.860     370.245
  H      448.928    -245.684     370.614
  H      449.566    -247.341     370.656
  H      449.326    -246.509     369.092
  P      452.062    -246.417     369.264
  C      453.004    -244.066     368.750
  O      453.278    -245.368     369.261
  C      454.218    -243.147     368.875
  O      455.410    -243.858     368.485
  C      454.116    -241.919     367.962
  O      453.422    -240.820     368.527
  C      455.587    -241.579     367.729
  O      456.086    -240.701     368.752
  C      456.280    -242.945     367.806
  N      459.996    -244.381     364.598
  C      460.104    -243.723     365.812
  N      461.354    -243.381     366.189
  N      459.076    -243.427     366.560
  C      457.885    -243.748     366.005
  C      457.654    -244.376     364.802
  C      458.799    -244.772     364.014
  O      458.760    -245.368     362.941
  N      456.309    -244.500     364.545
  C      455.734    -243.864     365.550
  N      456.646    -243.460     366.499
  O      451.425    -246.212     367.805
  O      452.450    -247.850     369.474
  H      456.177    -241.221     369.576
  H      451.750    -246.911     367.209
  H      460.823    -244.612     364.080
  H      454.668    -243.709     365.662
  H      457.206    -242.888     368.394
  H      455.720    -241.061     366.778
  H      462.168    -243.508     365.615
  H      453.671    -242.190     366.999
  H      461.457    -242.732     366.974
  H      454.343    -242.854     369.924
  H      452.170    -243.674     369.338
  H      452.674    -244.130     367.709
  P      452.425    -239.938     367.648
  C      450.521    -240.109     369.450
  O      451.325    -239.304     368.615
  O      451.605    -241.033     366.822
  O      453.077    -238.930     366.752
  H      451.967    -241.128     365.920
  H      449.855    -239.487     370.011
  H      451.145    -240.661     370.122
  H      449.953    -240.789     368.850

 6  7  8  9  10  11  12  13  14  15  26  29  33  34 0
 6-311+G(2d,p)
 ****
 36  38  39  40  41 0
 6-311+G(2d,p)
 ****
 1  2  3  4  5  16  17  18  19  20  21  22  23  24  25 0
 3-21G
 ****
 27  28  30  31  32  35  37  42  43  44  45  46  47 0
 3-21G
 ****
 48  49 0
 3-21G
 ****


