%nproc=1
%NoSave
%Mem=1900MB
#P OB98/GEN NMR

erre ene a

0 1
  C     -213.073     100.207     610.086
  O     -213.925      99.274     609.385
  P     -213.784      97.723     609.780
  C     -213.980      96.028     607.789
  O     -214.628      96.927     608.671
  C     -214.756      95.942     606.465
  O     -216.182      95.880     606.726
  C     -214.544      97.120     605.549
  O     -213.273      97.085     604.914
  C     -215.727      96.969     604.601
  O     -215.435      95.972     603.597
  C     -216.837      96.438     605.556
  N     -217.802      97.467     605.920
  C     -218.755      97.765     604.951
  O     -218.787      97.227     603.850
  N     -219.679      98.714     605.313
  C     -219.731      99.405     606.476
  O     -220.571     100.241     606.748
  C     -218.654      99.085     607.441
  C     -217.760      98.139     607.129
  O     -214.679      97.666     611.102
  O     -212.371      97.289     609.959
  H     -215.458      98.249     611.067
  H     -216.264      95.834     603.088
  H     -220.396      98.932     604.625
  H     -218.643      99.630     608.373
  H     -216.958      97.891     607.834
  H     -217.374      95.605     605.088
  H     -215.983      97.892     604.085
  H     -214.648      98.062     606.116
  H     -214.451      95.005     605.970
  H     -213.912      95.037     608.238
  H     -212.955      96.372     607.633
  P     -212.499      98.483     604.745
  C     -211.770      98.293     602.230
  O     -211.404      98.254     603.608
  O     -211.637      98.533     606.097
  O     -213.402      99.668     604.544
  H     -211.218      97.668     606.312
  H     -210.877      98.470     601.630
  H     -212.494      99.075     602.043
  H     -212.193      97.326     601.953
  H     -213.264     101.199     609.733
  H     -212.048      99.956     609.909
  H     -213.276     100.157     611.135

 3  4  5  6  7  8  9  10  11  12  13  24  28  29  30  31  32 0
 6-311+G(2d,p)
 ****
 33  34 0
 6-311+G(2d,p)
 ****
 1  2  14  15  16  17  18  19  20  21  22  23  25  26  27 0
 3-21G
 ****
 35  36  37  38  39  40  41  42  43  44  45 0
 3-21G
 ****


