%nproc=1
%NoSave
%Mem=1900MB
#P OB98/GEN NMR

erre ene a

0 1
  C      -72.316     205.915      -0.195
  O      -72.875     206.370       1.024
  P      -72.328     207.693       1.740
  C      -71.449     206.402       3.773
  O      -71.116     207.268       2.701
  C      -71.863     207.186       5.023
  O      -72.242     206.255       6.074
  C      -70.760     208.098       5.583
  O      -71.393     209.296       6.044
  C      -70.205     207.301       6.750
  O      -69.548     208.118       7.701
  C      -71.485     206.609       7.254
  N      -71.198     205.444       8.066
  C      -70.579     205.677       9.307
  O      -70.189     206.806       9.599
  N      -70.414     204.619      10.164
  C      -70.665     203.415       9.751
  N      -70.545     202.398      10.655
  C      -71.079     203.107       8.370
  C      -71.362     204.159       7.603
  O      -73.375     208.532       2.399
  O      -71.596     208.506       0.572
  H      -71.948     209.415       0.544
  H      -70.134     208.870       7.936
  H      -71.150     202.081       8.028
  H      -71.707     204.045       6.576
  H      -72.100     207.310       7.829
  H      -69.493     206.555       6.382
  H      -70.003     208.359       4.832
  H      -72.750     207.776       4.776
  H      -70.303     202.652      11.606
  H      -70.571     205.800       4.008
  H      -71.017     201.503      10.521
  H      -72.250     205.715       3.467
  P      -70.677     210.703       5.759
  C      -69.111     210.717       7.837
  O      -69.215     210.659       6.424
  O      -71.468     211.681       6.753
  O      -70.764     211.226       4.356
  H      -71.413     212.597       6.411
  H      -68.052     210.747       8.107
  H      -69.566     209.837       8.285
  H      -69.592     211.628       8.212
  H      -72.817     205.022      -0.506
  H      -71.275     205.709      -0.055
  H      -72.433     206.669      -0.945

 3  4  5  6  7  8  9  10  11  12  13  24  27  28  29  30  32 0
 6-311+G(2d,p)
 ****
 34  35 0
 6-311+G(2d,p)
 ****
 1  2  14  15  16  17  18  19  20  21  22  23  25  26 0
 3-21G
 ****
 31  33  36  37  38  39  40  41  42  43  44  45  46 0
 3-21G
 ****


