%nproc=1
%NoSave
%Mem=1900MB
#P OB98/GEN NMR

erre ene a

0 1
  C      205.099    -495.289    -492.676
  O      205.827    -494.342    -493.440
  H      204.066    -494.941    -492.582
  H      205.525    -495.369    -491.674
  H      205.100    -496.266    -493.166
  P      207.352    -494.659    -493.808
  C      206.679    -496.009    -495.892
  O      207.351    -496.037    -494.642
  C      207.536    -496.667    -496.971
  O      207.692    -498.075    -496.654
  C      206.932    -496.569    -498.380
  O      207.994    -496.368    -499.317
  C      206.311    -497.936    -498.595
  O      206.229    -498.282    -499.975
  C      207.256    -498.836    -497.795
  N      208.026    -503.673    -496.545
  C      208.933    -502.666    -496.840
  N      210.239    -503.013    -496.827
  N      208.583    -501.441    -497.126
  C      207.249    -501.247    -497.093
  C      206.252    -502.148    -496.813
  C      206.647    -503.503    -496.518
  O      205.888    -504.432    -496.254
  N      205.007    -501.561    -496.905
  C      205.256    -500.312    -497.236
  N      206.600    -500.066    -497.371
  O      208.310    -494.633    -492.661
  O      207.718    -493.559    -494.912
  H      205.823    -497.518    -500.442
  H      208.219    -492.827    -494.517
  H      208.348    -504.598    -496.339
  H      204.515    -499.546    -497.397
  H      208.135    -499.129    -498.375
  H      205.297    -497.956    -498.173
  H      210.579    -503.930    -496.594
  H      206.198    -495.764    -498.473
  H      210.925    -502.287    -497.017
  H      208.534    -496.222    -496.943
  H      206.485    -494.962    -496.157
  H      205.720    -496.534    -495.798
  P      208.033    -495.010    -500.156
  C      210.071    -494.081    -498.882
  O      208.709    -493.875    -499.245
  O      206.753    -494.614    -500.814
  O      209.172    -495.298    -501.250
  H      208.972    -494.793    -502.060
  H      210.407    -493.263    -498.279
  H      210.670    -494.142    -499.766
  H      210.159    -494.992    -498.328

 6  7  8  9  10  11  12  13  14  15  26  29  33  34 0
 6-311+G(2d,p)
 ****
 36  38  39  40  41 0
 6-311+G(2d,p)
 ****
 1  2  3  4  5  16  17  18  19  20  21  22  23  24  25 0
 3-21G
 ****
 27  28  30  31  32  35  37  42  43  44  45  46  47 0
 3-21G
 ****
 48  49 0
 3-21G
 ****


