%nproc=1
%NoSave
%Mem=1900MB
#P OB98/GEN NMR

erre ene a

0 1
  C      323.031     463.766    -237.487
  O      321.695     463.517    -237.100
  H      323.135     463.514    -238.550
  H      323.716     463.133    -236.917
  H      323.289     464.822    -237.351
  P      321.234     463.951    -235.627
  C      320.622     466.439    -235.958
  O      320.139     465.106    -235.804
  C      319.604     467.268    -236.746
  O      319.625     466.886    -238.142
  C      318.170     467.084    -236.282
  O      317.919     467.787    -235.087
  C      317.406     467.601    -237.502
  O      317.346     469.034    -237.491
  C      318.286     467.091    -238.660
  N      317.770     465.876    -239.282
  C      316.667     466.023    -240.118
  O      316.117     467.098    -240.314
  N      316.200     464.867    -240.689
  C      316.647     463.598    -240.435
  O      316.126     462.588    -240.908
  C      317.798     463.506    -239.521
  C      318.298     464.632    -238.995
  O      322.331     464.257    -234.664
  O      320.358     462.701    -235.127
  H      316.650     469.280    -236.850
  H      320.875     462.181    -234.480
  H      315.395     464.955    -241.289
  H      318.183     462.516    -239.306
  H      319.143     464.575    -238.319
  H      318.376     467.862    -239.434
  H      316.380     467.232    -237.532
  H      317.942     466.015    -236.159
  H      319.901     468.329    -236.680
  H      321.566     466.403    -236.501
  H      320.783     466.870    -234.969
  P      316.749     467.302    -234.103
  C      318.288     466.094    -232.419
  O      317.374     467.183    -232.623
  O      315.979     466.102    -234.562
  O      315.796     468.578    -233.980
  H      314.904     468.351    -234.305
  H      318.641     466.109    -231.409
  H      319.117     466.194    -233.088
  H      317.787     465.168    -232.608

 6  7  8  9  10  11  12  13  14  15  16  26  31  32  33  34  35 0
 6-311+G(2d,p)
 ****
 36  37 0
 6-311+G(2d,p)
 ****
 1  2  3  4  5  17  18  19  20  21  22  23  24  25 0
 3-21G
 ****
 27  28  29  30  38  39  40  41  42  43  44  45 0
 3-21G
 ****


