%nproc=1
%NoSave
%Mem=1900MB
#P OB98/GEN NMR

erre ene a

0 1
  C      -44.986    -158.965    -243.047
  O      -45.878    -160.045    -242.861
  H      -44.477    -158.764    -242.100
  H      -45.534    -158.069    -243.348
  H      -44.239    -159.219    -243.803
  P      -46.775    -160.469    -244.123
  C      -49.238    -161.263    -244.344
  O      -48.298    -160.484    -243.618
  C      -50.543    -161.356    -243.559
  O      -50.383    -162.269    -242.449
  C      -50.988    -160.039    -242.938
  O      -51.602    -159.180    -243.883
  C      -51.959    -160.535    -241.877
  O      -53.265    -160.773    -242.427
  C      -51.302    -161.855    -241.416
  N      -50.645    -161.721    -240.120
  C      -51.472    -161.363    -239.058
  O      -52.681    -161.170    -239.182
  N      -50.855    -161.200    -237.849
  C      -49.516    -161.315    -237.610
  O      -49.016    -161.082    -236.518
  C      -48.694    -161.706    -238.768
  C      -49.284    -161.878    -239.954
  O      -46.420    -162.019    -244.315
  O      -46.534    -159.676    -245.364
  H      -45.805    -162.127    -245.063
  H      -53.588    -159.906    -242.741
  H      -51.436    -160.931    -237.070
  H      -47.626    -161.813    -238.613
  H      -48.693    -162.148    -240.824
  H      -52.056    -162.648    -241.332
  H      -52.082    -159.807    -241.074
  H      -50.144    -159.547    -242.442
  H      -51.322    -161.755    -244.223
  H      -48.840    -162.270    -244.495
  H      -49.405    -160.799    -245.322
  P      -51.121    -157.651    -243.956
  C      -52.009    -155.417    -242.892
  O      -52.056    -156.834    -242.939
  O      -51.651    -157.230    -245.403
  O      -49.657    -157.472    -243.740
  H      -52.498    -157.644    -245.634
  H      -52.700    -155.061    -242.157
  H      -52.271    -155.019    -243.850
  H      -51.020    -155.101    -242.634

 6  7  8  9  10  11  12  13  14  15  16  27  31  32  33  34  35 0
 6-311+G(2d,p)
 ****
 36  37 0
 6-311+G(2d,p)
 ****
 1  2  3  4  5  17  18  19  20  21  22  23  24  25 0
 3-21G
 ****
 26  28  29  30  38  39  40  41  42  43  44  45 0
 3-21G
 ****


