%nproc=1
%NoSave
%Mem=1900MB
#P OB98/GEN NMR

erre ene a

0 1
  C     -492.239     124.161     143.331
  O     -491.316     124.562     144.327
  P     -491.322     126.104     144.772
  C     -489.367     126.579     143.111
  O     -490.661     126.944     143.578
  C     -489.326     126.667     141.585
  O     -490.549     126.146     141.018
  C     -489.209     128.093     141.057
  O     -487.878     128.568     141.147
  C     -489.704     127.937     139.628
  O     -488.651     127.469     138.767
  C     -490.797     126.859     139.787
  N     -492.142     127.416     139.742
  C     -492.718     127.520     138.478
  O     -492.130     127.189     137.445
  N     -493.975     128.057     138.433
  C     -494.679     128.544     139.496
  O     -495.782     129.061     139.384
  C     -494.012     128.429     140.806
  C     -492.792     127.888     140.862
  O     -490.226     126.170     145.934
  O     -492.647     126.612     145.226
  H     -489.041     127.388     137.875
  H     -490.502     126.814     146.617
  H     -494.420     128.118     137.532
  H     -494.541     128.807     141.667
  H     -492.277     127.815     141.815
  H     -490.707     126.114     138.982
  H     -490.064     128.881     139.209
  H     -489.894     128.752     141.605
  H     -488.494     126.054     141.221
  H     -489.140     125.560     143.427
  H     -488.626     127.251     143.553
  P     -487.620     129.845     142.084
  C     -486.875     131.287     140.038
  O     -487.768     131.112     141.115
  O     -486.048     129.709     142.354
  O     -488.467     129.845     143.315
  H     -485.578     129.315     141.598
  H     -486.584     130.331     139.597
  H     -485.987     131.814     140.388
  H     -487.364     131.895     139.270
  H     -492.122     123.115     143.137
  H     -492.057     124.713     142.433
  H     -493.236     124.351     143.671

 3  4  5  6  7  8  9  10  11  12  13  23  28  29  30  31  32 0
 6-311+G(2d,p)
 ****
 33  34 0
 6-311+G(2d,p)
 ****
 1  2  14  15  16  17  18  19  20  21  22  24  25  26 0
 3-21G
 ****
 27  35  36  37  38  39  40  41  42  43  44  45 0
 3-21G
 ****


