%nproc=1
%NoSave
%Mem=1900MB
#P OB98/GEN NMR

erre ene a

0 1
  C      252.721    -314.802     -52.947
  O      251.860    -315.674     -53.647
  H      253.087    -314.040     -53.642
  H      253.580    -315.356     -52.558
  H      252.194    -314.307     -52.128
  P      251.073    -316.807     -52.834
  C      252.451    -318.810     -53.704
  O      252.102    -318.014     -52.576
  C      253.518    -319.843     -53.327
  O      253.948    -320.524     -54.534
  C      254.758    -319.237     -52.665
  O      255.232    -320.124     -51.654
  C      255.762    -319.160     -53.797
  O      257.110    -319.193     -53.331
  C      255.377    -320.377     -54.639
  N      259.338    -319.928     -57.750
  C      259.295    -320.167     -56.389
  N      260.483    -320.282     -55.755
  N      258.186    -320.277     -55.705
  C      257.072    -320.157     -56.471
  C      256.980    -319.926     -57.823
  C      258.218    -319.786     -58.562
  O      258.316    -319.556     -59.764
  N      255.669    -319.851     -58.227
  C      254.975    -320.040     -57.123
  N      255.776    -320.221     -56.028
  O      249.765    -317.220     -53.433
  O      250.876    -316.184     -51.376
  H      257.676    -319.399     -54.105
  H      249.953    -315.892     -51.241
  H      260.219    -319.843     -58.220
  H      253.895    -320.053     -57.061
  H      255.848    -321.302     -54.272
  H      255.615    -318.230     -54.361
  H      261.376    -320.234     -56.224
  H      254.554    -318.258     -52.226
  H      260.481    -320.485     -54.764
  H      253.057    -320.599     -52.680
  H      252.840    -318.145     -54.484
  H      251.555    -319.313     -54.081
  P      254.915    -319.797     -50.114
  C      257.212    -318.902     -49.376
  O      255.854    -318.582     -49.643
  O      254.905    -320.972     -49.197
  O      253.466    -319.113     -50.190
  H      252.959    -319.360     -49.389
  H      257.734    -318.018     -49.073
  H      257.666    -319.298     -50.260
  H      257.260    -319.630     -48.594

 6  7  8  9  10  11  12  13  14  15  26  29  33  34 0
 6-311+G(2d,p)
 ****
 36  38  39  40  41 0
 6-311+G(2d,p)
 ****
 1  2  3  4  5  16  17  18  19  20  21  22  23  24  25 0
 3-21G
 ****
 27  28  30  31  32  35  37  42  43  44  45  46  47 0
 3-21G
 ****
 48  49 0
 3-21G
 ****


