%nproc=1
%NoSave
%Mem=1900MB
#P OB98/GEN NMR

erre ene a

0 1
  C       12.565     453.869      73.950
  O       11.228     454.099      73.566
  H       13.121     454.804      73.862
  H       13.015     453.127      73.283
  H       12.631     453.518      74.983
  P       10.105     453.055      74.020
  C        9.801     451.853      71.757
  O        9.209     452.694      72.738
  C        8.749     451.205      70.856
  O        8.067     450.157      71.578
  C        7.673     452.198      70.404
  O        8.001     452.926      69.230
  C        6.477     451.282      70.164
  O        6.474     450.764      68.825
  C        6.691     450.151      71.176
  N        2.334     448.763      73.463
  C        2.739     448.536      72.161
  N        1.853     447.893      71.368
  N        3.896     448.924      71.690
  C        4.630     449.639      72.571
  C        4.322     449.946      73.880
  C        3.072     449.447      74.415
  O        2.677     449.610      75.563
  N        5.292     450.728      74.455
  C        6.139     450.966      73.471
  N        5.820     450.261      72.332
  O        9.104     453.947      74.902
  O       10.598     451.881      74.809
  H        6.352     451.517      68.212
  H        8.702     453.395      75.598
  H        1.443     448.417      73.775
  H        7.017     451.599      73.540
  H        6.496     449.169      70.725
  H        5.538     451.827      70.297
  H        0.920     447.650      71.654
  H        7.417     452.890      71.214
  H        2.033     447.875      70.362
  H        9.247     450.737      69.999
  H       10.351     451.082      72.301
  H       10.526     452.414      71.160
  P        8.379     454.478      69.303
  C        5.869     455.191      69.613
  O        7.088     455.328      68.915
  O        9.347     454.672      68.046
  O        9.020     454.921      70.578
  H       10.281     454.654      68.326
  H        5.140     455.851      69.191
  H        6.018     455.438      70.643
  H        5.524     454.181      69.534

 6  7  8  9  10  11  12  13  14  15  26  29  33  34 0
 6-311+G(2d,p)
 ****
 36  38  39  40  41 0
 6-311+G(2d,p)
 ****
 1  2  3  4  5  16  17  18  19  20  21  22  23  24  25 0
 3-21G
 ****
 27  28  30  31  32  35  37  42  43  44  45  46  47 0
 3-21G
 ****
 48  49 0
 3-21G
 ****


