%nproc=1
%NoSave
%Mem=1900MB
#P OB98/GEN NMR

erre ene a

0 1
  C       -5.903     -87.849     169.789
  O       -6.220     -86.458     169.657
  P       -6.760     -85.938     168.240
  C       -9.061     -85.215     169.218
  O       -8.363     -85.989     168.253
  C       -9.309     -83.797     168.691
  O      -10.054     -83.809     167.456
  C      -10.114     -82.924     169.640
  O       -9.295     -82.364     170.656
  C      -10.604     -81.837     168.698
  O       -9.555     -80.874     168.476
  C      -10.881     -82.623     167.411
  N      -15.185     -81.924     164.722
  C      -13.969     -81.339     164.647
  N      -12.878     -81.565     165.410
  C      -13.127     -82.519     166.321
  C      -14.315     -83.204     166.517
  C      -15.382     -82.875     165.666
  N      -16.617     -83.477     165.747
  N      -14.196     -84.103     167.556
  C      -12.951     -83.974     167.970
  N      -12.268     -83.023     167.260
  O       -6.364     -87.128     167.245
  O       -6.166     -84.640     167.805
  H       -9.901     -80.217     167.842
  H       -6.134     -86.764     166.370
  H      -13.857     -80.587     163.871
  H      -12.501     -84.546     168.770
  H      -10.605     -82.061     166.511
  H      -11.460     -81.287     169.098
  H      -10.968     -83.477     170.054
  H       -8.332     -83.332     168.501
  H       -8.492     -85.174     170.150
  H      -17.325     -83.208     165.083
  H      -16.762     -84.202     166.434
  H      -10.006     -85.713     169.457
  P       -9.478     -82.933     172.145
  C       -7.097     -83.964     172.268
  O       -8.492     -84.190     172.253
  O      -10.940     -83.583     172.103
  O       -9.353     -81.905     173.217
  H      -11.354     -83.534     172.986
  H       -6.601     -84.861     172.646
  H       -6.840     -83.123     172.916
  H       -6.745     -83.766     171.252
  H       -5.558     -88.043     170.783
  H       -5.137     -88.108     169.088
  H       -6.777     -88.434     169.594

 3  4  5  6  7  8  9  10  11  12  22  25  29  30  31  32 0
 6-311+G(2d,p)
 ****
 33  36  37 0
 6-311+G(2d,p)
 ****
 1  2  13  14  15  16  17  18  19  20  21  23  24  26 0
 3-21G
 ****
 27  28  34  35  38  39  40  41  42  43  44  45  46  47  48 0
 3-21G
 ****


