%nproc=1
%NoSave
%Mem=1900MB
#P OB98/GEN NMR

erre ene a

0 1
  C     -262.300    -147.247    -229.715
  O     -261.647    -148.202    -230.529
  H     -262.703    -146.456    -230.357
  H     -261.601    -146.795    -229.005
  H     -263.130    -147.715    -229.176
  P     -260.751    -149.326    -229.807
  C     -260.465    -151.883    -230.065
  O     -261.085    -150.700    -230.571
  C     -261.337    -153.115    -230.324
  O     -262.540    -153.049    -229.529
  C     -261.816    -153.232    -231.765
  O     -260.793    -153.535    -232.692
  C     -263.012    -154.165    -231.634
  O     -262.662    -155.546    -231.666
  C     -263.558    -153.798    -230.230
  N     -264.814    -153.063    -230.305
  C     -265.935    -153.816    -230.652
  O     -265.892    -155.021    -230.907
  N     -267.113    -153.127    -230.740
  C     -267.268    -151.779    -230.574
  O     -268.346    -151.210    -230.705
  C     -266.043    -151.030    -230.233
  C     -264.891    -151.697    -230.118
  O     -260.895    -149.412    -228.316
  O     -259.264    -148.996    -230.293
  H     -263.488    -156.056    -231.548
  H     -258.595    -149.440    -229.718
  H     -267.936    -153.656    -230.981
  H     -266.126    -149.960    -230.091
  H     -263.973    -151.166    -229.870
  H     -263.734    -154.706    -229.641
  H     -263.739    -154.002    -232.437
  H     -262.219    -152.256    -232.068
  H     -260.773    -154.007    -230.020
  H     -260.339    -151.752    -228.983
  H     -259.480    -152.008    -230.524
  P     -260.966    -153.377    -234.273
  C     -259.417    -153.628    -236.351
  O     -259.501    -153.408    -234.947
  O     -261.942    -152.345    -234.743
  O     -261.556    -154.825    -234.678
  H     -262.174    -154.689    -235.418
  H     -258.390    -153.622    -236.652
  H     -259.944    -152.852    -236.866
  H     -259.854    -154.575    -236.590

 6  7  8  9  10  11  12  13  14  15  16  26  31  32  33  34  35 0
 6-311+G(2d,p)
 ****
 36  37 0
 6-311+G(2d,p)
 ****
 1  2  3  4  5  17  18  19  20  21  22  23  24  25 0
 3-21G
 ****
 27  28  29  30  38  39  40  41  42  43  44  45 0
 3-21G
 ****


