%nproc=1
%NoSave
%Mem=1900MB
#P OB98/GEN NMR

erre ene a

0 1
  C      607.372     -10.746    -445.228
  O      608.407     -11.463    -444.584
  H      606.448     -10.814    -444.645
  H      607.663      -9.693    -445.297
  H      607.207     -11.128    -446.237
  P      608.179     -13.042    -444.390
  C      609.134     -12.595    -442.016
  O      608.178     -13.290    -442.807
  C      608.744     -12.681    -440.537
  O      607.587     -11.859    -440.281
  C      608.361     -14.084    -440.078
  O      609.505     -14.879    -439.780
  C      607.582     -13.757    -438.817
  O      608.496     -13.432    -437.745
  C      606.793     -12.515    -439.249
  N      602.190     -14.443    -438.138
  C      603.310     -14.303    -437.407
  N      604.491     -13.781    -437.774
  C      604.461     -13.383    -439.050
  C      603.400     -13.473    -439.936
  C      602.204     -14.031    -439.433
  N      601.067     -14.188    -440.193
  N      603.749     -13.000    -441.188
  C      604.999     -12.591    -441.042
  N      605.481     -12.818    -439.775
  O      609.573     -13.684    -444.861
  O      607.010     -13.624    -445.117
  H      607.961     -13.361    -436.932
  H      609.447     -14.622    -445.088
  H      603.238     -14.650    -436.370
  H      605.596     -12.142    -441.820
  H      606.663     -11.797    -438.426
  H      606.965     -14.592    -438.464
  H      607.695     -14.585    -440.795
  H      609.578     -12.283    -439.942
  H      609.158     -11.542    -442.320
  H      600.336     -14.760    -439.790
  H      601.120     -14.023    -441.182
  H      610.127     -13.033    -442.173
  P      609.395     -16.457    -440.070
  C      611.544     -16.699    -438.613
  O      610.225     -17.177    -438.897
  O      610.319     -16.659    -441.364
  O      607.999     -16.964    -440.283
  H      610.027     -17.431    -441.873
  H      611.967     -17.272    -437.814
  H      611.496     -15.669    -438.326
  H      612.155     -16.798    -439.486

 6  7  8  9  10  11  12  13  14  15  25  28  32  33  34  35 0
 6-311+G(2d,p)
 ****
 36  39  40 0
 6-311+G(2d,p)
 ****
 1  2  3  4  5  16  17  18  19  20  21  22  23  24 0
 3-21G
 ****
 26  27  29  30  31  37  38  41  42  43  44  45  46  47 0
 3-21G
 ****
 48 0
 3-21G
 ****


