%nproc=1
%NoSave
%Mem=1900MB
#P OB98/GEN NMR

erre ene a

0 1
  C     -199.576      11.868      62.905
  O     -199.075      11.668      64.214
  P     -197.581      12.151      64.544
  C     -198.413      14.484      65.423
  O     -197.605      13.757      64.515
  C     -197.634      15.674      65.991
  O     -198.568      16.589      66.626
  C     -196.575      15.300      67.037
  O     -195.475      16.203      66.871
  C     -197.290      15.566      68.349
  O     -196.395      15.763      69.431
  C     -198.117      16.801      67.979
  N     -199.255      17.028      68.870
  C     -199.965      18.216      68.729
  O     -199.678      19.095      67.917
  N     -201.020      18.384      69.589
  C     -201.385      17.534      70.592
  O     -202.329      17.742      71.343
  C     -200.568      16.318      70.723
  C     -199.568      16.121      69.866
  O     -196.822      11.751      63.196
  O     -197.018      11.555      65.787
  H     -197.371      11.862      62.403
  H     -196.911      16.081      70.196
  H     -201.573      19.222      69.479
  H     -200.817      15.625      71.518
  H     -198.951      15.233      69.943
  H     -197.476      17.692      67.968
  H     -197.933      14.712      68.593
  H     -196.230      14.268      66.930
  H     -197.171      16.215      65.155
  H     -198.716      13.832      66.243
  H     -199.319      14.822      64.909
  P     -194.010      15.703      67.312
  C     -193.919      14.373      65.059
  O     -193.668      14.401      66.449
  O     -194.343      15.095      68.759
  O     -192.969      16.773      67.361
  H     -195.113      14.504      68.753
  H     -193.329      13.570      64.613
  H     -193.643      15.316      64.585
  H     -194.980      14.169      64.884
  H     -200.577      11.495      62.846
  H     -198.959      11.346      62.203
  H     -199.570      12.913      62.677

 3  4  5  6  7  8  9  10  11  12  13  24  28  29  30  31  32 0
 6-311+G(2d,p)
 ****
 33  34 0
 6-311+G(2d,p)
 ****
 1  2  14  15  16  17  18  19  20  21  22  23  25  26  27 0
 3-21G
 ****
 35  36  37  38  39  40  41  42  43  44  45 0
 3-21G
 ****


