%nproc=1
%NoSave
%Mem=1900MB
#P OB98/GEN NMR

erre ene a

0 1
  C       30.230     507.637      89.934
  O       31.413     506.889      90.159
  P       31.360     505.312      89.871
  C       33.657     504.962      91.049
  O       32.287     504.602      90.970
  C       34.145     504.882      92.488
  O       33.518     505.908      93.280
  C       33.830     503.571      93.196
  O       34.700     502.528      92.771
  C       34.007     503.986      94.653
  O       35.401     504.020      94.995
  C       33.429     505.415      94.649
  N       30.074     507.767      97.715
  C       31.408     507.928      97.548
  N       32.237     507.249      96.724
  C       31.548     506.321      96.029
  C       30.199     506.027      96.116
  C       29.443     506.804      97.003
  N       28.082     506.638      97.185
  N       29.868     505.001      95.262
  C       30.988     504.681      94.659
  N       32.039     505.458      95.082
  O       32.205     505.156      88.519
  O       29.973     504.739      89.732
  H       35.850     504.556      94.315
  H       31.847     504.440      87.959
  H       31.878     508.714      98.147
  H       31.108     503.899      93.918
  H       33.993     506.099      95.289
  H       33.510     503.310      95.357
  H       32.781     503.281      93.016
  H       35.232     505.069      92.493
  H       33.786     505.984      90.685
  H       27.658     507.124      97.939
  H       27.650     505.830      96.748
  H       34.231     504.290      90.403
  P       34.153     501.026      92.851
  C       36.664     500.553      92.671
  O       35.444     500.171      93.273
  O       33.966     500.655      91.310
  O       32.943     500.842      93.721
  H       34.753     500.884      90.781
  H       37.474     499.925      93.068
  H       36.891     501.609      92.869
  H       36.618     500.389      91.580
  H       30.409     508.666      90.165
  H       29.447     507.262      90.559
  H       29.941     507.547      88.908

 3  4  5  6  7  8  9  10  11  12  22  25  29  30  31  32 0
 6-311+G(2d,p)
 ****
 33  36  37 0
 6-311+G(2d,p)
 ****
 1  2  13  14  15  16  17  18  19  20  21  23  24  26 0
 3-21G
 ****
 27  28  34  35  38  39  40  41  42  43  44  45  46  47  48 0
 3-21G
 ****


