%nproc=1
%NoSave
%Mem=1900MB
#P OB98/GEN NMR

erre ene a

0 1
  C       41.639     119.011     -36.717
  O       41.075     119.831     -37.721
  H       42.681     119.295     -36.555
  H       41.086     119.163     -35.786
  H       41.577     117.956     -36.995
  P       41.528     119.554     -39.234
  C       43.559     120.257     -40.688
  O       42.825     120.468     -39.491
  C       44.475     121.447     -40.970
  O       43.677     122.520     -41.543
  C       45.188     122.004     -39.728
  O       46.517     122.381     -40.099
  C       44.392     123.254     -39.402
  O       45.154     124.220     -38.686
  C       43.973     123.712     -40.795
  N       42.552     128.592     -40.664
  C       43.716     128.001     -41.006
  N       43.995     126.683     -41.065
  C       42.900     125.953     -40.792
  C       41.645     126.412     -40.435
  C       41.493     127.808     -40.356
  N       40.332     128.419     -39.943
  N       40.799     125.351     -40.177
  C       41.539     124.273     -40.350
  N       42.816     124.587     -40.721
  O       40.379     120.288     -40.076
  O       41.668     118.119     -39.612
  H       45.481     123.816     -37.859
  H       39.637     119.673     -40.221
  H       44.535     128.672     -41.252
  H       41.212     123.255     -40.193
  H       44.768     124.260     -41.316
  H       43.520     122.986     -38.796
  H       45.225     121.301     -38.887
  H       45.205     121.150     -41.732
  H       42.859     120.144     -41.523
  H       40.349     129.420     -39.815
  H       39.571     127.849     -39.607
  H       44.146     119.338     -40.595
  P       47.726     121.514     -39.501
  C       49.147     121.511     -37.319
  O       48.247     122.222     -38.163
  O       48.913     121.772     -40.542
  O       47.418     120.058     -39.367
  H       49.477     120.982     -40.615
  H       49.398     122.117     -36.474
  H       50.036     121.275     -37.865
  H       48.683     120.607     -36.984

 6  7  8  9  10  11  12  13  14  15  25  28  32  33  34  35 0
 6-311+G(2d,p)
 ****
 36  39  40 0
 6-311+G(2d,p)
 ****
 1  2  3  4  5  16  17  18  19  20  21  22  23  24 0
 3-21G
 ****
 26  27  29  30  31  37  38  41  42  43  44  45  46  47 0
 3-21G
 ****
 48 0
 3-21G
 ****


