%nproc=1
%NoSave
%Mem=1900MB
#P OB98/GEN NMR

erre ene a

0 1
  C     -201.379     335.327     362.652
  O     -202.388     334.859     361.785
  H     -201.780     335.356     363.667
  H     -201.080     336.338     362.360
  H     -200.512     334.664     362.639
  P     -201.989     334.409     360.302
  C     -203.691     335.868     359.015
  O     -203.305     334.551     359.393
  C     -205.221     335.987     358.937
  O     -205.764     335.955     360.286
  C     -205.651     337.313     358.306
  O     -206.916     337.213     357.652
  C     -205.791     338.228     359.516
  O     -206.654     339.343     359.274
  C     -206.312     337.257     360.570
  N     -207.302     336.667     365.541
  C     -208.020     336.218     364.442
  N     -209.152     335.525     364.713
  N     -207.676     336.452     363.207
  C     -206.564     337.226     363.093
  C     -205.785     337.746     364.095
  C     -206.158     337.450     365.465
  O     -205.568     337.839     366.471
  N     -204.744     338.484     363.589
  C     -204.899     338.420     362.280
  N     -205.977     337.640     361.925
  O     -201.825     332.821     360.421
  O     -200.756     335.046     359.741
  H     -206.385     339.733     358.422
  H     -201.264     332.483     359.703
  H     -207.600     336.436     366.468
  H     -204.255     338.891     361.552
  H     -207.405     337.171     360.512
  H     -204.808     338.627     359.756
  H     -209.550     335.494     365.644
  H     -204.916     337.704     357.603
  H     -209.839     335.463     363.955
  H     -205.637     335.116     358.410
  H     -203.240     336.071     358.042
  H     -203.284     336.596     359.722
  P     -206.949     337.250     356.052
  C     -208.911     338.956     355.517
  O     -208.422     337.627     355.548
  O     -206.787     335.718     355.631
  O     -205.899     338.115     355.426
  H     -205.948     335.588     355.146
  H     -209.914     338.958     355.145
  H     -208.292     339.549     354.877
  H     -208.896     339.365     356.506

 6  7  8  9  10  11  12  13  14  15  26  29  33  34 0
 6-311+G(2d,p)
 ****
 36  38  39  40  41 0
 6-311+G(2d,p)
 ****
 1  2  3  4  5  16  17  18  19  20  21  22  23  24  25 0
 3-21G
 ****
 27  28  30  31  32  35  37  42  43  44  45  46  47 0
 3-21G
 ****
 48  49 0
 3-21G
 ****


