%nproc=1
%NoSave
%Mem=1900MB
#P OB98/GEN NMR

erre ene a

0 1
  C     -803.524     473.313    -103.368
  O     -802.257     473.842    -103.041
  H     -804.205     473.474    -102.527
  H     -803.456     472.235    -103.566
  H     -803.918     473.826    -104.252
  P     -801.095     473.672    -104.133
  C     -800.002     475.965    -103.759
  O     -800.792     475.174    -104.629
  C     -800.544     477.400    -103.709
  O     -801.902     477.358    -103.170
  C     -799.725     478.339    -102.815
  O     -799.665     479.638    -103.410
  C     -800.539     478.400    -101.525
  O     -800.288     479.608    -100.797
  C     -801.974     478.254    -102.051
  N     -805.278     479.523     -98.380
  C     -804.652     480.247     -99.318
  N     -803.787     479.838    -100.275
  C     -803.644     478.483    -100.223
  C     -804.211     477.616     -99.319
  C     -805.061     478.181     -98.360
  N     -805.691     477.436     -97.371
  N     -803.785     476.322     -99.574
  C     -802.973     476.423    -100.601
  N     -802.847     477.713    -101.027
  O     -801.370     472.684    -105.215
  O     -799.827     473.347    -103.212
  H     -800.622     479.494     -99.894
  H     -799.793     473.934    -102.432
  H     -804.858     481.329     -99.303
  H     -802.449     475.587    -101.074
  H     -802.395     479.214    -102.374
  H     -800.266     477.549    -100.881
  H     -798.707     477.969    -102.638
  H     -800.620     477.796    -104.737
  H     -798.960     475.992    -104.116
  H     -806.303     477.917     -96.726
  H     -805.560     476.443     -97.353
  H     -800.009     475.518    -102.772
  P     -798.755     479.837    -104.708
  C     -800.069     481.762    -105.836
  O     -799.669     480.391    -105.910
  O     -797.843     478.703    -105.047
  O     -797.889     481.136    -104.310
  H     -796.972     481.030    -104.673
  H     -800.668     482.005    -106.688
  H     -799.200     482.387    -105.821
  H     -800.637     481.920    -104.943

 6  7  8  9  10  11  12  13  14  15  25  28  32  33  34  35 0
 6-311+G(2d,p)
 ****
 36  39  40 0
 6-311+G(2d,p)
 ****
 1  2  3  4  5  16  17  18  19  20  21  22  23  24 0
 3-21G
 ****
 26  27  29  30  31  37  38  41  42  43  44  45  46  47 0
 3-21G
 ****
 48 0
 3-21G
 ****


