%nproc=1
%NoSave
%Mem=1900MB
#P OB98/GEN NMR

erre ene a

0 1
  C      289.108    -380.086     250.476
  O      288.815    -381.437     250.189
  H      289.142    -379.528     249.535
  H      290.078    -379.996     250.971
  H      288.325    -379.652     251.108
  P      288.820    -382.491     251.398
  C      286.383    -383.183     250.883
  O      287.727    -383.606     251.037
  C      285.582    -384.195     250.051
  O      285.938    -384.037     248.646
  C      285.859    -385.660     250.427
  O      284.663    -386.406     250.159
  C      286.951    -386.024     249.435
  O      287.140    -387.416     249.367
  C      286.433    -385.314     248.182
  N      287.456    -385.164     247.160
  C      287.116    -385.596     245.877
  O      286.008    -386.086     245.661
  N      288.050    -385.493     244.878
  C      289.240    -385.060     245.150
  N      290.122    -385.000     244.117
  C      289.660    -384.650     246.505
  C      288.725    -384.720     247.454
  O      288.695    -381.908     252.767
  O      290.208    -383.272     251.223
  H      287.852    -387.641     248.723
  H      290.845    -382.966     251.893
  H      290.669    -384.315     246.685
  H      288.938    -384.443     248.484
  H      285.584    -385.856     247.747
  H      287.908    -385.592     249.745
  H      286.155    -385.788     251.472
  H      284.513    -383.959     250.137
  H      289.797    -385.301     243.204
  H      286.401    -382.213     250.373
  H      291.082    -384.701     244.217
  H      285.909    -383.055     251.863
  P      284.350    -387.826     250.829
  C      282.443    -387.266     252.477
  O      282.801    -387.886     251.246
  O      285.291    -388.198     251.930
  O      284.452    -388.885     249.630
  H      284.760    -389.741     249.984
  H      281.391    -387.375     252.638
  H      282.692    -386.226     252.438
  H      282.977    -387.731     253.279

 6  7  8  9  10  11  12  13  14  15  16  26  30  31  32  33  35 0
 6-311+G(2d,p)
 ****
 37  38 0
 6-311+G(2d,p)
 ****
 1  2  3  4  5  17  18  19  20  21  22  23  24  25 0
 3-21G
 ****
 27  28  29  34  36  39  40  41  42  43  44  45  46 0
 3-21G
 ****


