%nproc=1
%NoSave
%Mem=1900MB
#P OB98/GEN NMR

erre ene a

0 1
  C     -234.062    -105.716    -392.525
  O     -233.472    -106.997    -392.441
  H     -234.036    -105.384    -393.567
  H     -233.504    -105.000    -391.915
  H     -235.103    -105.757    -392.194
  P     -233.356    -107.646    -390.979
  C     -231.354    -107.390    -389.342
  O     -232.320    -106.740    -390.154
  C     -230.168    -106.460    -389.109
  O     -229.484    -106.213    -390.361
  C     -230.553    -105.084    -388.581
  O     -230.830    -105.099    -387.191
  C     -229.303    -104.285    -388.921
  O     -228.288    -104.441    -387.917
  C     -228.859    -104.916    -390.260
  N     -229.176    -104.065    -391.403
  C     -228.141    -103.251    -391.855
  O     -227.024    -103.235    -391.339
  N     -228.444    -102.425    -392.901
  C     -229.665    -102.304    -393.501
  O     -229.889    -101.491    -394.387
  C     -230.717    -103.198    -392.987
  C     -230.432    -104.020    -391.971
  O     -232.545    -109.003    -391.248
  O     -234.658    -107.893    -390.292
  H     -233.156    -109.760    -391.237
  H     -228.081    -105.396    -387.885
  H     -227.708    -101.821    -393.236
  H     -231.697    -103.136    -393.447
  H     -231.199    -104.673    -391.567
  H     -227.775    -105.090    -390.260
  H     -229.515    -103.217    -388.995
  H     -231.396    -104.679    -389.152
  H     -229.464    -106.955    -388.425
  H     -231.004    -108.296    -389.846
  H     -231.820    -107.672    -388.391
  P     -231.660    -103.879    -386.562
  C     -230.997    -101.742    -385.182
  O     -230.582    -102.879    -385.923
  O     -232.339    -104.586    -385.300
  O     -232.613    -103.245    -387.520
  H     -231.766    -105.252    -384.884
  H     -230.137    -101.205    -384.841
  H     -231.577    -102.057    -384.340
  H     -231.590    -101.107    -385.806

 6  7  8  9  10  11  12  13  14  15  16  27  31  32  33  34  35 0
 6-311+G(2d,p)
 ****
 36  37 0
 6-311+G(2d,p)
 ****
 1  2  3  4  5  17  18  19  20  21  22  23  24  25 0
 3-21G
 ****
 26  28  29  30  38  39  40  41  42  43  44  45 0
 3-21G
 ****


