%nproc=1
%NoSave
%Mem=1900MB
#P OB98/GEN NMR

erre ene a

0 1
  C      256.848     508.993      90.283
  O      256.045     509.745      89.389
  P      255.187     509.033      88.233
  C      253.037     509.682      89.513
  O      253.791     508.645      88.914
  C      251.541     509.449      89.303
  O      250.808     510.554      89.891
  C      251.119     509.338      87.834
  O      250.049     508.387      87.768
  C      250.614     510.730      87.522
  O      249.731     510.761      86.407
  C      249.966     511.109      88.858
  N      249.819     512.554      89.020
  C      248.535     513.090      88.908
  O      247.569     512.375      88.653
  N      248.377     514.443      89.087
  C      249.409     515.197      89.273
  N      249.191     516.520      89.505
  C      250.792     514.686      89.294
  C      250.919     513.366      89.186
  O      255.880     507.906      87.543
  O      254.762     510.228      87.263
  H      250.243     510.546      85.605
  H      255.452     510.442      86.587
  H      251.627     515.359      89.426
  H      251.890     512.898      89.214
  H      248.990     510.622      88.958
  H      251.461     511.386      87.294
  H      251.933     509.009      87.181
  H      251.256     508.542      89.853
  H      248.231     516.805      89.658
  H      253.315     510.630      89.035
  H      249.885     517.094      89.971
  H      253.281     509.750      90.581
  P      249.910     507.487      86.446
  C      252.214     506.327      86.739
  O      251.385     507.134      85.928
  O      249.432     508.574      85.364
  O      248.926     506.365      86.506
  H      248.933     508.121      84.657
  H      253.168     506.183      86.228
  H      251.756     505.350      86.903
  H      252.399     506.816      87.699
  H      257.332     509.655      90.970
  H      257.586     508.451      89.730
  H      256.232     508.306      90.824

 3  4  5  6  7  8  9  10  11  12  13  23  27  28  29  30  32 0
 6-311+G(2d,p)
 ****
 34  35 0
 6-311+G(2d,p)
 ****
 1  2  14  15  16  17  18  19  20  21  22  24  25  26 0
 3-21G
 ****
 31  33  36  37  38  39  40  41  42  43  44  45  46 0
 3-21G
 ****


