%nproc=1
%NoSave
%Mem=1900MB
#P OB98/GEN NMR

erre ene a

0 1
  C      347.322     726.679     -79.526
  O      346.085     727.372     -79.500
  P      345.380     727.664     -80.919
  C      344.724     730.009     -80.042
  O      344.295     728.845     -80.711
  C      343.543     730.952     -79.734
  O      342.836     731.299     -80.961
  C      342.518     730.354     -78.774
  O      341.983     731.422     -77.988
  C      341.430     729.836     -79.702
  O      340.191     729.648     -79.025
  C      341.445     730.937     -80.764
  N      337.076     729.567     -83.038
  C      337.365     729.944     -81.756
  N      338.559     730.272     -81.229
  C      339.517     730.225     -82.183
  C      339.383     729.863     -83.507
  C      338.091     729.515     -83.939
  N      337.809     729.101     -85.217
  N      340.607     729.883     -84.149
  C      341.462     730.283     -83.214
  N      340.845     730.513     -82.026
  O      344.485     726.359     -81.161
  O      346.343     727.881     -82.035
  H      339.582     729.184     -79.633
  H      344.870     725.817     -81.866
  H      336.518     729.971     -81.080
  H      342.538     730.376     -83.360
  H      340.895     731.846     -80.442
  H      341.745     728.883     -80.136
  H      342.902     729.558     -78.128
  H      343.944     731.896     -79.313
  H      345.455     730.557     -80.666
  H      336.850     728.834     -85.424
  H      338.557     729.007     -85.875
  H      345.253     729.741     -79.138
  P      342.911     731.991     -76.802
  C      341.380     730.927     -74.985
  O      341.978     732.105     -75.515
  O      343.169     733.509     -77.238
  O      344.169     731.221     -76.621
  H      344.010     733.829     -76.856
  H      341.427     730.978     -73.891
  H      341.890     730.020     -75.323
  H      340.339     730.898     -75.301
  H      347.680     726.551     -78.526
  H      348.035     727.243     -80.091
  H      347.184     725.720     -79.981

 3  4  5  6  7  8  9  10  11  12  22  25  29  30  31  32 0
 6-311+G(2d,p)
 ****
 33  36  37 0
 6-311+G(2d,p)
 ****
 1  2  13  14  15  16  17  18  19  20  21  23  24  26 0
 3-21G
 ****
 27  28  34  35  38  39  40  41  42  43  44  45  46  47  48 0
 3-21G
 ****


