%nproc=1
%NoSave
%Mem=1900MB
#P OB98/GEN NMR

erre ene a

0 1
  C       44.607     -43.888    -152.681
  O       44.244     -45.087    -152.017
  P       43.773     -44.990    -150.487
  C       46.279     -44.991    -149.803
  O       44.996     -44.402    -149.626
  C       47.253     -44.505    -148.726
  O       47.482     -43.079    -148.890
  C       46.748     -44.721    -147.295
  O       47.864     -44.999    -146.436
  C       46.199     -43.364    -146.903
  O       46.175     -43.198    -145.487
  C       47.176     -42.440    -147.631
  N       46.996     -37.708    -145.858
  C       47.867     -38.733    -145.540
  N       48.755     -38.480    -144.554
  N       47.873     -39.894    -146.142
  C       46.922     -40.001    -147.104
  C       46.013     -39.056    -147.519
  C       46.012     -37.779    -146.836
  O       45.247     -36.840    -147.049
  N       45.234     -39.520    -148.547
  C       45.639     -40.765    -148.728
  N       46.637     -41.114    -147.854
  O       43.699     -46.526    -150.038
  O       42.460     -44.310    -150.279
  H       45.439     -43.744    -145.148
  H       42.766     -46.810    -149.982
  H       47.024     -36.833    -145.358
  H       45.230     -41.456    -149.456
  H       48.116     -42.333    -147.078
  H       45.178     -43.245    -147.280
  H       48.760     -37.632    -144.007
  H       46.004     -45.521    -147.194
  H       49.376     -39.231    -144.273
  H       48.217     -45.005    -148.878
  H       46.665     -44.717    -150.785
  H       46.189     -46.082    -149.764
  P       47.730     -46.305    -145.509
  C       47.408     -44.933    -143.318
  O       46.860     -45.854    -144.238
  O       49.205     -46.486    -144.915
  O       47.248     -47.521    -146.231
  H       49.360     -47.423    -144.681
  H       46.803     -44.020    -143.324
  H       48.443     -44.669    -143.560
  H       47.382     -45.371    -142.318
  H       44.896     -44.111    -153.687
  H       45.426     -43.430    -152.167
  H       43.772     -43.218    -152.690

 3  4  5  6  7  8  9  10  11  12  23  26  30  31 0
 6-311+G(2d,p)
 ****
 33  35  36  37  38 0
 6-311+G(2d,p)
 ****
 1  2  13  14  15  16  17  18  19  20  21  22  24  25 0
 3-21G
 ****
 27  28  29  32  34  39  40  41  42  43  44  45  46  47  48  49 0
 3-21G
 ****


