%nproc=1
%NoSave
%Mem=1900MB
#P OB98/GEN NMR

erre ene a

0 1
  C      -46.059     -47.543     -23.111
  O      -45.719     -46.182     -22.858
  P      -46.775     -44.994     -22.715
  C      -45.620     -43.605     -20.814
  O      -46.698     -44.436     -21.217
  C      -45.967     -42.707     -19.614
  O      -46.848     -41.638     -20.049
  C      -46.735     -43.498     -18.555
  O      -46.036     -44.288     -17.612
  C      -47.686     -42.485     -17.932
  O      -47.151     -41.882     -16.754
  C      -47.857     -41.438     -19.037
  N      -51.865     -38.768     -20.757
  C      -50.715     -38.316     -20.144
  N      -50.637     -36.988     -19.911
  N      -49.736     -39.097     -19.776
  C      -49.980     -40.410     -19.987
  C      -51.089     -40.981     -20.567
  C      -52.143     -40.101     -21.026
  O      -53.178     -40.448     -21.585
  N      -50.994     -42.349     -20.595
  C      -49.843     -42.606     -20.010
  N      -49.184     -41.459     -19.628
  O      -48.133     -45.267     -23.265
  O      -46.121     -43.809     -23.594
  H      -46.974     -42.590     -16.109
  H      -46.867     -43.304     -23.978
  H      -52.578     -38.117     -21.042
  H      -49.437     -43.597     -19.843
  H      -47.708     -40.424     -18.647
  H      -48.623     -42.971     -17.634
  H      -51.403     -36.351     -20.061
  H      -47.378     -44.209     -19.092
  H      -49.902     -36.682     -19.272
  H      -45.072     -42.216     -19.224
  H      -45.349     -42.996     -21.681
  H      -44.747     -44.214     -20.576
  P      -45.902     -45.883     -17.627
  C      -43.632     -45.679     -18.796
  O      -44.912     -46.284     -18.818
  O      -47.322     -46.385     -18.169
  O      -45.587     -46.504     -16.306
  H      -47.443     -47.334     -17.976
  H      -43.175     -45.775     -19.784
  H      -42.999     -46.187     -18.061
  H      -43.706     -44.617     -18.539
  H      -45.166     -48.130     -23.160
  H      -46.584     -47.613     -24.041
  H      -46.683     -47.908     -22.322

 3  4  5  6  7  8  9  10  11  12  23  26  30  31 0
 6-311+G(2d,p)
 ****
 33  35  36  37  38 0
 6-311+G(2d,p)
 ****
 1  2  13  14  15  16  17  18  19  20  21  22  24  25 0
 3-21G
 ****
 27  28  29  32  34  39  40  41  42  43  44  45  46  47  48  49 0
 3-21G
 ****


