%nproc=1
%NoSave
%Mem=1900MB
#P OB98/GEN NMR

erre ene a

0 1
  C     -525.784    -305.169    -446.227
  O     -524.497    -305.160    -446.851
  P     -523.932    -306.359    -447.739
  C     -523.281    -304.613    -449.535
  O     -522.872    -305.760    -448.797
  C     -522.070    -303.822    -450.031
  O     -521.432    -303.127    -448.926
  C     -520.934    -304.662    -450.624
  O     -521.265    -305.167    -451.902
  C     -519.773    -303.667    -450.606
  O     -519.798    -302.828    -451.768
  C     -520.078    -302.841    -449.335
  N     -519.124    -303.094    -448.268
  C     -518.002    -302.265    -448.202
  O     -517.803    -301.425    -449.084
  N     -517.128    -302.415    -447.153
  C     -517.299    -303.392    -446.313
  N     -516.407    -303.480    -445.279
  C     -518.386    -304.374    -446.405
  C     -519.270    -304.164    -447.398
  O     -524.991    -307.210    -448.371
  O     -523.017    -307.230    -446.732
  H     -522.982    -308.156    -447.055
  H     -520.673    -302.394    -451.781
  H     -518.483    -305.189    -445.701
  H     -520.113    -304.830    -447.547
  H     -520.066    -301.773    -449.586
  H     -518.804    -304.174    -450.591
  H     -520.711    -305.501    -449.939
  H     -522.408    -303.080    -450.762
  H     -515.674    -302.789    -445.234
  H     -523.877    -303.967    -448.873
  H     -516.468    -304.181    -444.548
  H     -523.911    -304.929    -450.378
  P     -521.503    -306.761    -452.016
  C     -523.121    -306.293    -454.025
  O     -522.041    -307.046    -453.514
  O     -522.800    -307.005    -451.107
  O     -520.359    -307.600    -451.586
  H     -522.703    -307.845    -450.626
  H     -523.042    -306.260    -455.110
  H     -523.116    -305.279    -453.634
  H     -524.061    -306.798    -453.755
  H     -525.927    -304.254    -445.690
  H     -525.846    -305.994    -445.548
  H     -526.543    -305.265    -446.975

 3  4  5  6  7  8  9  10  11  12  13  24  27  28  29  30  32 0
 6-311+G(2d,p)
 ****
 34  35 0
 6-311+G(2d,p)
 ****
 1  2  14  15  16  17  18  19  20  21  22  23  25  26 0
 3-21G
 ****
 31  33  36  37  38  39  40  41  42  43  44  45  46 0
 3-21G
 ****


