%nproc=1
%NoSave
%Mem=1900MB
#P OB98/GEN NMR

erre ene a

0 1
  C     1179.803    -328.552    -831.522
  O     1178.937    -329.500    -832.100
  H     1179.976    -327.737    -832.246
  H     1180.770    -329.013    -831.289
  H     1179.370    -328.121    -830.615
  P     1178.386    -330.658    -831.136
  C     1180.646    -331.855    -830.686
  O     1179.384    -331.902    -831.320
  C     1181.195    -333.254    -830.482
  O     1180.448    -333.963    -829.459
  C     1181.147    -334.144    -831.727
  O     1182.256    -333.912    -832.583
  C     1181.241    -335.526    -831.103
  O     1182.593    -335.802    -830.705
  C     1180.355    -335.364    -829.854
  N     1176.592    -338.540    -828.596
  C     1177.906    -338.501    -828.176
  N     1178.276    -339.471    -827.304
  N     1178.795    -337.625    -828.573
  C     1178.270    -336.737    -829.446
  C     1176.995    -336.655    -829.956
  C     1176.036    -337.647    -829.495
  O     1174.866    -337.703    -829.827
  N     1176.849    -335.597    -830.819
  C     1178.047    -335.076    -830.881
  N     1178.964    -335.718    -830.078
  O     1177.040    -331.150    -831.853
  O     1178.126    -330.258    -829.725
  H     1182.882    -335.071    -830.108
  H     1176.388    -331.387    -831.187
  H     1175.963    -339.256    -828.268
  H     1178.307    -334.196    -831.462
  H     1180.708    -335.959    -829.010
  H     1180.932    -336.330    -831.788
  H     1177.684    -340.211    -826.999
  H     1180.192    -334.046    -832.262
  H     1179.230    -339.451    -826.944
  H     1182.247    -333.173    -830.114
  H     1180.544    -331.365    -829.707
  H     1181.342    -331.254    -831.297
  P     1181.939    -333.289    -834.033
  C     1180.467    -335.283    -834.860
  O     1181.678    -334.565    -834.994
  O     1183.375    -332.750    -834.529
  O     1180.900    -332.220    -834.065
  H     1183.247    -332.059    -835.213
  H     1180.451    -336.090    -835.562
  H     1179.642    -334.629    -835.050
  H     1180.392    -335.673    -833.867

 6  7  8  9  10  11  12  13  14  15  26  29  33  34 0
 6-311+G(2d,p)
 ****
 36  38  39  40  41 0
 6-311+G(2d,p)
 ****
 1  2  3  4  5  16  17  18  19  20  21  22  23  24  25 0
 3-21G
 ****
 27  28  30  31  32  35  37  42  43  44  45  46  47 0
 3-21G
 ****
 48  49 0
 3-21G
 ****


