%nproc=1
%NoSave
%Mem=1900MB
#P OB98/GEN NMR

erre ene a

0 1
  C     -290.823     696.878     712.098
  O     -290.276     697.742     713.078
  H     -290.112     696.787     711.275
  H     -291.756     697.287     711.711
  H     -290.998     695.887     712.530
  P     -291.204     698.097     714.333
  C     -293.031     699.397     713.014
  O     -291.977     699.452     713.968
  C     -293.266     700.786     712.432
  O     -293.647     701.701     713.485
  C     -292.036     701.411     711.788
  O     -291.785     700.903     710.488
  C     -292.424     702.878     711.778
  O     -293.227     703.206     710.630
  C     -293.233     703.024     713.079
  N     -292.465     703.697     714.121
  C     -292.916     704.962     714.488
  O     -293.914     705.491     713.988
  N     -292.179     705.618     715.430
  C     -291.022     705.166     715.993
  O     -290.372     705.831     716.795
  C     -290.573     703.836     715.555
  C     -291.299     703.169     714.650
  O     -290.149     698.544     715.452
  O     -292.079     696.983     714.803
  H     -290.072     697.841     716.126
  H     -294.007     702.624     710.672
  H     -292.499     706.530     715.711
  H     -289.647     703.450     715.977
  H     -290.983     702.193     714.303
  H     -294.148     703.600     712.900
  H     -291.544     703.516     711.746
  H     -291.163     701.278     712.438
  H     -294.090     700.728     711.708
  H     -293.950     699.055     713.499
  H     -292.763     698.683     712.231
  P     -290.288     700.433     710.142
  C     -289.366     702.886     709.920
  O     -289.630     701.631     709.314
  O     -290.588     699.290     709.064
  O     -289.531     699.971     711.341
  H     -291.425     699.453     708.588
  H     -288.928     703.545     709.200
  H     -288.690     702.752     710.738
  H     -290.281     703.308     710.279

 6  7  8  9  10  11  12  13  14  15  16  27  31  32  33  34  35 0
 6-311+G(2d,p)
 ****
 36  37 0
 6-311+G(2d,p)
 ****
 1  2  3  4  5  17  18  19  20  21  22  23  24  25 0
 3-21G
 ****
 26  28  29  30  38  39  40  41  42  43  44  45 0
 3-21G
 ****


