%nproc=1
%NoSave
%Mem=1900MB
#P OB98/GEN NMR

erre ene a

0 1
  C      -90.098    -121.064     211.295
  O      -89.579    -120.965     212.611
  P      -89.893    -122.166     213.629
  C      -87.759    -121.578     215.056
  O      -89.163    -121.774     215.003
  C      -87.361    -120.997     216.412
  O      -87.856    -121.839     217.474
  C      -85.856    -120.897     216.641
  O      -85.288    -119.796     215.952
  C      -85.795    -120.798     218.159
  O      -86.074    -119.452     218.583
  C      -86.941    -121.737     218.587
  N      -86.477    -123.056     219.013
  C      -86.101    -123.173     220.347
  O      -86.145    -122.237     221.144
  N      -85.647    -124.408     220.733
  C      -85.478    -125.490     219.921
  O      -85.028    -126.560     220.310
  C      -85.861    -125.296     218.515
  C      -86.335    -124.107     218.132
  O      -88.988    -123.326     213.002
  O      -91.345    -122.482     213.734
  H      -88.221    -122.966     212.520
  H      -85.977    -119.442     219.556
  H      -85.389    -124.523     221.702
  H      -85.732    -126.132     217.838
  H      -86.614    -123.945     217.097
  H      -87.511    -121.289     219.409
  H      -84.812    -121.069     218.562
  H      -85.370    -121.825     216.315
  H      -87.828    -120.008     216.514
  H      -87.466    -120.887     214.260
  H      -87.260    -122.538     214.885
  P      -83.765    -119.964     215.462
  C      -83.894    -117.657     214.242
  O      -83.225    -118.484     215.165
  O      -83.971    -120.608     214.012
  O      -82.922    -120.780     216.388
  H      -84.697    -120.195     213.515
  H      -83.615    -116.616     214.437
  H      -84.980    -117.752     214.333
  H      -83.589    -117.918     213.225
  H      -89.812    -120.200     210.733
  H      -91.165    -121.125     211.336
  H      -89.708    -121.942     210.823

 3  4  5  6  7  8  9  10  11  12  13  24  28  29  30  31  32 0
 6-311+G(2d,p)
 ****
 33  34 0
 6-311+G(2d,p)
 ****
 1  2  14  15  16  17  18  19  20  21  22  23  25  26  27 0
 3-21G
 ****
 35  36  37  38  39  40  41  42  43  44  45 0
 3-21G
 ****


