%nproc=1
%NoSave
%Mem=1900MB
#P OB98/GEN NMR

erre ene a

0 1
  C     -300.438     576.944    -180.804
  O     -299.860     575.729    -181.222
  H     -300.711     577.523    -181.695
  H     -299.721     577.530    -180.224
  H     -301.343     576.764    -180.214
  P     -299.326     574.690    -180.116
  C     -301.323     573.099    -180.404
  O     -300.649     573.988    -179.519
  C     -301.274     571.658    -179.892
  O     -301.761     571.613    -178.521
  C     -302.110     570.673    -180.716
  O     -301.343     569.496    -180.992
  C     -303.265     570.323    -179.791
  O     -303.855     569.058    -180.089
  C     -302.580     570.430    -178.421
  N     -303.544     570.509    -177.332
  C     -303.888     569.297    -176.724
  O     -303.374     568.242    -177.102
  N     -304.834     569.301    -175.726
  C     -305.432     570.414    -175.417
  N     -306.387     570.339    -174.440
  C     -305.119     571.709    -176.052
  C     -304.175     571.686    -176.993
  O     -298.410     575.283    -179.098
  O     -298.647     573.507    -180.958
  H     -303.163     568.361    -180.021
  H     -298.006     573.034    -180.377
  H     -305.651     572.602    -175.753
  H     -303.882     572.586    -177.516
  H     -301.923     569.569    -178.246
  H     -304.049     571.088    -179.882
  H     -302.467     571.093    -181.661
  H     -300.218     571.345    -179.849
  H     -306.572     569.433    -174.037
  H     -300.854     573.171    -181.396
  H     -306.925     571.135    -174.131
  H     -302.367     573.415    -180.475
  P     -301.371     568.968    -182.513
  C     -300.635     570.976    -183.985
  O     -301.717     570.215    -183.467
  O     -302.701     568.061    -182.564
  O     -300.164     568.182    -182.891
  H     -302.459     567.122    -182.641
  H     -301.016     571.766    -184.598
  H     -300.002     570.343    -184.572
  H     -300.072     571.392    -183.176

 6  7  8  9  10  11  12  13  14  15  16  26  30  31  32  33  35 0
 6-311+G(2d,p)
 ****
 37  38 0
 6-311+G(2d,p)
 ****
 1  2  3  4  5  17  18  19  20  21  22  23  24  25 0
 3-21G
 ****
 27  28  29  34  36  39  40  41  42  43  44  45  46 0
 3-21G
 ****


