%nproc=1
%NoSave
%Mem=1900MB
#P OB98/GEN NMR

erre ene a

0 1
  C       95.529    -107.542    -109.112
  O       95.035    -107.031    -107.890
  H       94.688    -107.714    -109.788
  H       96.042    -108.492    -108.946
  H       96.215    -106.829    -109.584
  P       96.078    -106.500    -106.791
  C       95.704    -103.974    -107.158
  O       96.599    -105.071    -107.299
  C       96.213    -103.023    -106.074
  O       97.479    -102.447    -106.466
  C       95.287    -101.842    -105.797
  O       94.162    -102.245    -105.035
  C       96.240    -100.893    -105.079
  O       96.392    -101.265    -103.703
  C       97.556    -101.130    -105.866
  N       97.814    -100.110    -106.882
  C       98.178     -98.848    -106.415
  O       98.248     -98.569    -105.215
  N       98.441     -97.905    -107.379
  C       98.301     -98.079    -108.726
  O       98.500     -97.184    -109.547
  C       97.877     -99.419    -109.161
  C       97.655    -100.358    -108.234
  O       97.157    -107.459    -106.402
  O       95.148    -106.119    -105.542
  H       95.526    -101.119    -103.275
  H       95.182    -106.833    -104.876
  H       98.697     -96.984    -107.060
  H       97.749     -99.591    -110.227
  H       97.345    -101.352    -108.538
  H       98.411    -101.151    -105.175
  H       95.897     -99.858    -105.093
  H       94.971    -101.377    -106.744
  H       96.377    -103.610    -105.156
  H       94.716    -104.358    -106.874
  H       95.625    -103.455    -108.121
  P       92.758    -101.492    -105.187
  C       91.499    -103.515    -106.142
  O       91.958    -102.192    -106.400
  O       92.844    -100.001    -105.276
  O       91.931    -101.949    -103.893
  H       91.885    -101.215    -103.249
  H       90.984    -103.888    -107.003
  H       90.833    -103.504    -105.305
  H       92.335    -104.147    -105.925

 6  7  8  9  10  11  12  13  14  15  16  26  31  32  33  34  35 0
 6-311+G(2d,p)
 ****
 36  37 0
 6-311+G(2d,p)
 ****
 1  2  3  4  5  17  18  19  20  21  22  23  24  25 0
 3-21G
 ****
 27  28  29  30  38  39  40  41  42  43  44  45 0
 3-21G
 ****


