%nproc=1
%NoSave
%Mem=1900MB
#P OB98/GEN NMR

erre ene a

0 1
  C       -0.805     111.387     -13.216
  O       -1.305     111.152     -14.512
  H       -0.617     112.459     -13.106
  H        0.138     110.857     -13.067
  H       -1.532     111.081     -12.459
  P       -1.632     109.647     -14.967
  C       -3.919     110.041     -13.870
  O       -2.813     109.156     -13.987
  C       -5.234     109.319     -14.165
  O       -5.213     108.808     -15.526
  C       -5.510     108.131     -13.230
  O       -6.857     108.192     -12.757
  C       -5.342     106.920     -14.134
  O       -6.056     105.777     -13.673
  C       -5.800     107.496     -15.477
  N       -5.391     106.662     -16.599
  C       -6.421     106.064     -17.331
  O       -7.597     106.260     -17.020
  N       -6.098     105.219     -18.359
  C       -4.853     104.953     -18.606
  N       -4.601     104.084     -19.620
  C       -3.734     105.540     -17.840
  C       -4.071     106.380     -16.863
  O       -0.447     108.744     -15.030
  O       -2.382     109.798     -16.372
  H       -5.617     105.442     -12.861
  H       -2.299     108.952     -16.871
  H       -2.714     105.282     -18.082
  H       -3.319     106.859     -16.246
  H       -6.891     107.609     -15.504
  H       -4.278     106.653     -14.186
  H       -4.834     108.091     -12.377
  H       -6.049     110.053     -14.125
  H       -5.399     103.700     -20.114
  H       -3.775     110.875     -14.567
  H       -3.677     103.784     -19.887
  H       -3.946     110.427     -12.846
  P       -7.049     108.609     -11.219
  C       -7.270     111.168     -11.585
  O       -6.501     110.106     -11.040
  O       -5.971     107.707     -10.455
  O       -8.430     108.368     -10.706
  H       -6.425     107.022      -9.929
  H       -6.782     112.099     -11.388
  H       -8.241     111.172     -11.136
  H       -7.367     111.032     -12.642

 6  7  8  9  10  11  12  13  14  15  16  26  30  31  32  33  35 0
 6-311+G(2d,p)
 ****
 37  38 0
 6-311+G(2d,p)
 ****
 1  2  3  4  5  17  18  19  20  21  22  23  24  25 0
 3-21G
 ****
 27  28  29  34  36  39  40  41  42  43  44  45  46 0
 3-21G
 ****


