%nproc=1
%NoSave
%Mem=1900MB
#P OB98/GEN NMR

erre ene a

0 1
  C     -363.014      17.045    -218.066
  O     -362.465      15.745    -217.972
  H     -362.228      17.734    -218.386
  H     -363.391      17.366    -217.092
  H     -363.820      17.060    -218.805
  P     -363.473      14.573    -217.538
  C     -362.776      14.573    -215.045
  O     -362.752      13.878    -216.285
  C     -361.570      14.187    -214.193
  O     -361.626      12.796    -213.835
  C     -360.225      14.384    -214.882
  O     -359.817      15.740    -214.820
  C     -359.337      13.487    -214.034
  O     -358.979      14.168    -212.816
  C     -360.266      12.301    -213.717
  N     -358.533       7.479    -214.039
  C     -358.389       8.422    -213.083
  N     -358.840       9.696    -213.084
  C     -359.504       9.965    -214.218
  C     -359.731       9.104    -215.280
  C     -359.220       7.802    -215.158
  N     -359.378       6.838    -216.131
  N     -360.449       9.733    -216.276
  C     -360.698      10.935    -215.799
  N     -360.117      11.138    -214.573
  O     -363.921      13.667    -218.632
  O     -364.637      15.419    -216.835
  H     -358.189      13.727    -212.453
  H     -364.262      16.157    -216.323
  H     -357.839       8.115    -212.197
  H     -361.305      11.687    -216.289
  H     -360.134      11.946    -212.687
  H     -358.404      13.228    -214.539
  H     -360.242      14.003    -215.909
  H     -361.618      14.764    -213.260
  H     -363.701      14.353    -214.502
  H     -358.838       5.992    -216.040
  H     -359.781       7.116    -217.014
  H     -362.753      15.644    -215.268
  P     -359.873      16.673    -216.121
  C     -357.426      17.367    -215.736
  O     -358.766      17.817    -215.911
  O     -361.227      17.178    -216.477
  O     -359.248      15.775    -217.285
  H     -359.726      15.925    -218.124
  H     -356.781      18.210    -215.606
  H     -357.120      16.814    -216.599
  H     -357.371      16.739    -214.871

 6  7  8  9  10  11  12  13  14  15  25  28  32  33  34  35 0
 6-311+G(2d,p)
 ****
 36  39  40 0
 6-311+G(2d,p)
 ****
 1  2  3  4  5  16  17  18  19  20  21  22  23  24 0
 3-21G
 ****
 26  27  29  30  31  37  38  41  42  43  44  45  46  47 0
 3-21G
 ****
 48 0
 3-21G
 ****


