%nproc=1
%NoSave
%Mem=1900MB
#P OB98/GEN NMR

erre ene a

0 1
  C     -751.092     -17.770     -21.219
  O     -750.056     -17.096     -20.518
  P     -750.403     -16.513     -19.068
  C     -749.631     -14.081     -19.625
  O     -750.700     -14.941     -19.255
  C     -750.014     -12.627     -19.378
  O     -750.794     -12.132     -20.488
  C     -750.882     -12.401     -18.143
  O     -750.101     -12.471     -16.957
  C     -751.438     -11.010     -18.443
  O     -750.464     -10.001     -18.157
  C     -751.685     -11.098     -19.966
  N     -755.948      -9.522     -22.337
  C     -754.753      -8.924     -22.141
  N     -753.662      -9.391     -21.482
  C     -753.911     -10.628     -20.999
  C     -755.090     -11.357     -21.089
  C     -756.146     -10.758     -21.801
  N     -757.363     -11.361     -21.994
  N     -754.985     -12.568     -20.450
  C     -753.748     -12.583     -19.982
  N     -753.050     -11.437     -20.295
  O     -748.992     -16.533     -18.315
  O     -751.454     -17.277     -18.314
  H     -750.744      -9.189     -18.625
  H     -749.106     -16.719     -17.355
  H     -754.635      -7.929     -22.578
  H     -753.300     -13.397     -19.418
  H     -751.434     -10.161     -20.478
  H     -752.344     -10.772     -17.867
  H     -751.686     -13.137     -18.092
  H     -749.087     -12.037     -19.311
  H     -749.408     -14.216     -20.689
  H     -758.105     -10.808     -22.381
  H     -757.547     -12.217     -21.480
  H     -748.738     -14.364     -19.057
  P     -750.889     -12.517     -15.555
  C     -749.400     -10.694     -14.504
  O     -750.689     -11.034     -14.971
  O     -749.900     -13.391     -14.654
  O     -752.295     -13.015     -15.643
  H     -748.984     -13.065     -14.724
  H     -749.391      -9.665     -14.187
  H     -748.663     -10.824     -15.305
  H     -749.133     -11.340     -13.651
  H     -750.723     -18.104     -22.166
  H     -751.913     -17.101     -21.372
  H     -751.420     -18.612     -20.647

 3  4  5  6  7  8  9  10  11  12  22  25  29  30  31  32 0
 6-311+G(2d,p)
 ****
 33  36  37 0
 6-311+G(2d,p)
 ****
 1  2  13  14  15  16  17  18  19  20  21  23  24  26 0
 3-21G
 ****
 27  28  34  35  38  39  40  41  42  43  44  45  46  47  48 0
 3-21G
 ****


