%nproc=1
%NoSave
%Mem=1900MB
#P OB98/GEN NMR

erre ene a

0 1
  C      231.023    -877.393     655.094
  O      232.336    -877.115     655.574
  P      232.837    -877.862     656.905
  C      232.725    -875.830     658.479
  O      232.200    -877.115     658.171
  C      232.534    -875.509     659.958
  O      233.642    -875.976     660.746
  C      232.439    -874.008     660.244
  O      231.185    -873.497     659.854
  C      232.718    -873.971     661.740
  O      231.533    -874.277     662.497
  C      233.750    -875.115     661.900
  N      235.120    -874.641     662.085
  C      235.589    -874.631     663.404
  O      234.859    -874.981     664.333
  N      236.880    -874.220     663.623
  C      237.630    -873.834     662.640
  N      238.889    -873.443     662.915
  C      237.146    -873.807     661.248
  C      235.900    -874.219     661.042
  O      234.316    -878.125     656.985
  O      232.019    -879.252     656.865
  H      231.812    -874.231     663.440
  H      232.550    -879.945     657.298
  H      237.810    -873.477     660.441
  H      235.475    -874.229     660.047
  H      233.499    -875.735     662.771
  H      233.073    -872.995     662.057
  H      233.238    -873.486     659.707
  H      231.619    -876.004     660.305
  H      239.189    -873.450     663.893
  H      232.212    -875.079     657.865
  H      239.561    -873.167     662.211
  H      233.779    -875.799     658.193
  P      231.025    -872.973     658.344
  C      231.782    -870.482     658.473
  O      232.109    -871.822     658.121
  O      229.631    -872.170     658.382
  O      231.005    -874.045     657.304
  H      229.186    -872.253     657.523
  H      232.707    -869.907     658.563
  H      231.265    -870.458     659.436
  H      231.160    -870.054     657.704
  H      230.839    -876.823     654.207
  H      230.306    -877.129     655.843
  H      230.938    -878.436     654.871

 3  4  5  6  7  8  9  10  11  12  13  23  27  28  29  30  32 0
 6-311+G(2d,p)
 ****
 34  35 0
 6-311+G(2d,p)
 ****
 1  2  14  15  16  17  18  19  20  21  22  24  25  26 0
 3-21G
 ****
 31  33  36  37  38  39  40  41  42  43  44  45  46 0
 3-21G
 ****


