%nproc=1
%NoSave
%Mem=1900MB
#P OB98/GEN NMR

erre ene a

0 1
  C      713.216    -611.440    -917.790
  O      713.670    -611.569    -919.160
  P      713.416    -612.967    -919.890
  C      711.559    -612.110    -921.495
  O      711.914    -612.984    -920.420
  C      710.878    -612.893    -922.625
  O      711.840    -613.761    -923.327
  C      709.754    -613.819    -922.165
  O      708.525    -613.120    -922.025
  C      709.651    -614.794    -923.330
  O      708.900    -614.179    -924.415
  C      711.118    -614.959    -923.718
  N      711.064    -620.030    -923.500
  C      710.265    -619.160    -924.227
  N      709.326    -619.720    -925.005
  N      710.387    -617.864    -924.186
  C      711.374    -617.437    -923.378
  C      712.227    -618.197    -922.584
  C      712.053    -619.637    -922.622
  O      712.724    -620.473    -921.976
  N      713.095    -617.407    -921.879
  C      712.786    -616.192    -922.246
  N      711.746    -616.138    -923.128
  O      713.380    -614.018    -918.677
  O      714.469    -613.324    -920.886
  H      708.089    -613.808    -923.979
  H      713.667    -614.879    -918.987
  H      710.927    -621.021    -923.544
  H      713.322    -615.292    -921.859
  H      711.265    -615.054    -924.830
  H      709.135    -615.710    -923.034
  H      709.212    -620.727    -925.140
  H      710.050    -614.350    -921.237
  H      708.761    -619.112    -925.593
  H      710.499    -612.167    -923.353
  H      712.441    -611.599    -921.895
  H      710.907    -611.321    -921.125
  P      707.664    -613.395    -920.699
  C      708.448    -611.315    -919.346
  O      708.449    -612.714    -919.480
  O      707.836    -614.966    -920.472
  O      706.203    -613.021    -920.820
  H      707.022    -615.359    -920.057
  H      708.898    -611.044    -918.371
  H      707.418    -610.909    -919.386
  H      709.054    -610.864    -920.168
  H      713.449    -610.460    -917.428
  H      713.706    -612.171    -917.181
  H      712.158    -611.593    -917.749

 3  4  5  6  7  8  9  10  11  12  23  26  30  31 0
 6-311+G(2d,p)
 ****
 33  35  36  37  38 0
 6-311+G(2d,p)
 ****
 1  2  13  14  15  16  17  18  19  20  21  22  24  25 0
 3-21G
 ****
 27  28  29  32  34  39  40  41  42  43  44  45  46  47  48  49 0
 3-21G
 ****


