%nproc=1
%NoSave
%Mem=1900MB
#P OB98/GEN NMR

erre ene a

0 1
  C     -854.263     268.754      -4.332
  O     -854.364     268.479      -2.952
  H     -854.436     269.817      -4.495
  H     -855.020     268.185      -4.878
  H     -853.261     268.500      -4.705
  P     -853.922     267.027      -2.450
  C     -855.649     265.666      -3.838
  O     -855.217     266.086      -2.551
  C     -856.567     264.448      -3.717
  O     -855.778     263.333      -3.213
  C     -857.745     264.649      -2.749
  O     -858.879     263.954      -3.271
  C     -857.274     263.957      -1.483
  O     -858.326     263.540      -0.622
  C     -856.475     262.785      -2.074
  N     -855.541     262.199      -1.118
  C     -856.070     261.411      -0.102
  O     -857.259     261.095      -0.008
  N     -855.168     260.966       0.831
  C     -853.840     261.254       0.867
  O     -853.091     260.844       1.744
  C     -853.331     262.103      -0.228
  C     -854.199     262.531      -1.150
  O     -853.731     267.232      -0.874
  O     -852.697     266.469      -3.112
  H     -852.811     267.503      -0.671
  H     -857.926     263.067       0.134
  H     -855.545     260.394       1.575
  H     -852.284     262.353      -0.223
  H     -853.859     263.177      -1.953
  H     -857.157     262.012      -2.441
  H     -856.612     264.623      -0.911
  H     -857.999     265.702      -2.571
  H     -856.921     264.174      -4.716
  H     -854.774     265.396      -4.442
  H     -856.177     266.494      -4.328
  P     -859.799     264.727      -4.333
  C     -861.981     264.096      -3.014
  O     -861.240     264.043      -4.240
  O     -859.192     264.190      -5.711
  O     -859.773     266.211      -4.161
  H     -858.904     263.274      -5.669
  H     -862.915     263.589      -3.139
  H     -862.162     265.117      -2.751
  H     -861.419     263.621      -2.237

 6  7  8  9  10  11  12  13  14  15  16  27  31  32  33  34  35 0
 6-311+G(2d,p)
 ****
 36  37 0
 6-311+G(2d,p)
 ****
 1  2  3  4  5  17  18  19  20  21  22  23  24  25 0
 3-21G
 ****
 26  28  29  30  38  39  40  41  42  43  44  45 0
 3-21G
 ****


