%nproc=1
%NoSave
%Mem=1900MB
#P OB98/GEN NMR

erre ene a

0 1
  C      186.563     -73.847     130.194
  O      187.453     -74.835     130.681
  H      187.137     -73.124     129.608
  H      186.087     -73.328     131.029
  H      185.801     -74.293     129.549
  P      186.849     -76.107     131.448
  C      188.292     -76.272     133.579
  O      188.054     -76.777     132.268
  C      189.102     -77.294     134.382
  O      188.324     -78.490     134.596
  C      190.382     -77.754     133.682
  O      191.393     -76.769     133.776
  C      190.676     -79.042     134.433
  O      191.322     -78.768     135.685
  C      189.250     -79.606     134.658
  N      188.895     -80.643     133.691
  C      189.537     -81.869     133.825
  O      190.391     -82.086     134.693
  N      189.185     -82.831     132.924
  C      188.359     -82.659     131.851
  O      188.151     -83.533     131.013
  C      187.733     -81.338     131.733
  C      188.019     -80.407     132.648
  O      186.057     -77.052     130.608
  O      185.947     -75.456     132.603
  H      191.196     -79.562     136.240
  H      185.006     -75.538     132.365
  H      189.650     -83.729     133.004
  H      187.061     -81.169     130.902
  H      187.569     -79.424     132.570
  H      189.164     -80.022     135.667
  H      191.329     -79.711     133.873
  H      190.175     -77.996     132.630
  H      189.332     -76.861     135.365
  H      187.333     -76.108     134.073
  H      188.834     -75.323     133.509
  P      192.123     -76.249     132.447
  C      194.235     -76.168     133.931
  O      193.490     -75.534     132.887
  O      191.268     -75.466     131.511
  O      192.634     -77.597     131.745
  H      192.226     -77.678     130.856
  H      195.119     -75.601     134.133
  H      194.508     -77.156     133.625
  H      193.635     -76.221     134.816

 6  7  8  9  10  11  12  13  14  15  16  26  31  32  33  34  35 0
 6-311+G(2d,p)
 ****
 36  37 0
 6-311+G(2d,p)
 ****
 1  2  3  4  5  17  18  19  20  21  22  23  24  25 0
 3-21G
 ****
 27  28  29  30  38  39  40  41  42  43  44  45 0
 3-21G
 ****


