%nproc=1
%NoSave
%Mem=1900MB
#P OB98/GEN NMR

erre ene a

0 1
  C      247.821    -142.376    -524.363
  O      248.060    -143.044    -523.143
  H      248.637    -141.681    -524.580
  H      247.768    -143.116    -525.167
  H      246.872    -141.833    -524.320
  P      248.164    -142.134    -521.826
  C      250.360    -143.434    -521.335
  O      249.709    -142.171    -521.393
  C      251.744    -143.324    -521.967
  O      251.626    -143.067    -523.383
  C      252.600    -142.187    -521.413
  O      253.222    -142.536    -520.189
  C      253.617    -142.033    -522.528
  O      254.595    -143.087    -522.442
  C      252.742    -142.221    -523.777
  N      251.201    -139.797    -528.012
  C      251.684    -141.043    -527.809
  N      252.074    -141.608    -526.650
  C      251.932    -140.749    -525.628
  C      251.462    -139.450    -525.684
  C      251.077    -138.973    -526.948
  N      250.597    -137.698    -527.159
  N      251.488    -138.868    -524.430
  C      251.938    -139.817    -523.631
  N      252.231    -140.971    -524.312
  O      247.447    -143.019    -520.698
  O      247.576    -140.764    -521.936
  H      255.213    -142.955    -523.181
  H      247.165    -142.453    -519.957
  H      251.766    -141.663    -528.699
  H      252.069    -139.718    -522.563
  H      253.272    -142.730    -524.590
  H      254.159    -141.088    -522.486
  H      252.022    -141.257    -521.318
  H      252.251    -144.291    -521.844
  H      249.768    -144.168    -521.887
  H      250.526    -137.399    -528.120
  H      250.645    -137.034    -526.399
  H      250.441    -143.749    -520.290
  P      252.564    -141.973    -518.836
  C      254.796    -140.720    -518.369
  O      253.376    -140.641    -518.476
  O      253.051    -143.019    -517.732
  O      251.078    -141.839    -518.880
  H      252.426    -143.053    -516.985
  H      255.190    -139.755    -518.125
  H      255.206    -141.047    -519.301
  H      255.058    -141.417    -517.600

 6  7  8  9  10  11  12  13  14  15  25  28  32  33  34  35 0
 6-311+G(2d,p)
 ****
 36  39  40 0
 6-311+G(2d,p)
 ****
 1  2  3  4  5  16  17  18  19  20  21  22  23  24 0
 3-21G
 ****
 26  27  29  30  31  37  38  41  42  43  44  45  46  47 0
 3-21G
 ****
 48 0
 3-21G
 ****


