%nproc=1
%NoSave
%Mem=1900MB
#P OB98/GEN NMR

erre ene a

0 1
  C     -164.082    1208.541    -222.774
  O     -163.302    1208.442    -221.584
  P     -161.839    1207.812    -221.644
  C     -160.811    1209.626    -220.099
  O     -161.046    1208.215    -220.314
  C     -161.230    1210.034    -218.690
  O     -162.638    1210.050    -218.528
  C     -160.696    1209.077    -217.606
  O     -159.318    1209.261    -217.413
  C     -161.586    1209.453    -216.427
  O     -161.090    1210.620    -215.750
  C     -162.943    1209.787    -217.137
  N     -163.936    1208.724    -216.997
  C     -164.514    1208.591    -215.727
  O     -164.127    1209.309    -214.787
  N     -165.449    1207.636    -215.533
  C     -165.824    1206.861    -216.529
  N     -166.776    1205.917    -216.286
  C     -165.228    1206.958    -217.880
  C     -164.310    1207.888    -218.046
  O     -161.081    1208.081    -222.926
  O     -162.086    1206.244    -221.439
  H     -161.808    1210.905    -215.163
  H     -161.409    1205.748    -221.909
  H     -165.576    1206.315    -218.674
  H     -163.837    1208.048    -218.995
  H     -163.373    1210.692    -216.720
  H     -161.646    1208.623    -215.702
  H     -160.892    1208.026    -217.919
  H     -160.843    1211.055    -218.504
  H     -167.177    1205.879    -215.335
  H     -161.378    1210.206    -220.836
  H     -167.163    1205.317    -217.002
  H     -159.747    1209.858    -220.290
  P     -158.437    1207.949    -217.107
  C     -157.304    1208.023    -219.459
  O     -157.122    1208.031    -218.044
  O     -159.307    1206.784    -217.793
  O     -158.154    1207.677    -215.677
  H     -159.181    1205.953    -217.257
  H     -156.375    1208.407    -219.923
  H     -158.129    1208.659    -219.755
  H     -157.489    1206.996    -219.797
  H     -165.028    1208.985    -222.544
  H     -164.236    1207.564    -223.182
  H     -163.567    1209.148    -223.489

 3  4  5  6  7  8  9  10  11  12  13  23  27  28  29  30  32 0
 6-311+G(2d,p)
 ****
 34  35 0
 6-311+G(2d,p)
 ****
 1  2  14  15  16  17  18  19  20  21  22  24  25  26 0
 3-21G
 ****
 31  33  36  37  38  39  40  41  42  43  44  45  46 0
 3-21G
 ****


