%nproc=1
%NoSave
%Mem=1900MB
#P OB98/GEN NMR

erre ene a

0 1
  C      891.288     264.397     -92.754
  O      890.715     263.293     -93.433
  P      891.503     261.888     -93.348
  C      891.173     261.439     -95.884
  O      892.091     261.627     -94.826
  C      891.911     260.934     -97.132
  O      892.683     261.986     -97.718
  C      892.898     259.818     -96.853
  O      892.230     258.581     -96.669
  C      893.769     259.853     -98.095
  O      893.219     259.084     -99.164
  C      893.776     261.369     -98.449
  N      895.045     262.013     -98.182
  C      896.130     261.529     -98.903
  O      896.004     260.579     -99.678
  N      897.366     262.091     -98.674
  C      897.499     263.057     -97.825
  N      898.736     263.594     -97.643
  C      896.353     263.614     -97.019
  C      895.165     263.042     -97.275
  O      890.329     260.821     -93.220
  O      892.483     261.795     -92.227
  H      893.863     259.132     -99.901
  H      890.624     260.013     -92.756
  H      896.517     264.408     -96.324
  H      894.289     263.366     -96.735
  H      893.529     261.515     -99.517
  H      894.790     259.463     -97.900
  H      893.506     260.038     -95.965
  H      891.153     260.599     -97.861
  H      899.487     263.192     -98.176
  H      890.686     262.387     -96.139
  H      898.929     264.368     -97.011
  H      890.392     260.722     -95.572
  P      893.093     257.308     -96.218
  C      892.477     255.956     -98.315
  O      893.514     256.583     -97.583
  O      891.960     256.313     -95.648
  O      894.173     257.552     -95.233
  H      892.384     255.539     -95.230
  H      892.857     255.638     -99.281
  H      891.648     256.649     -98.472
  H      892.120     255.073     -97.778
  H      890.670     265.260     -92.890
  H      892.263     264.591     -93.149
  H      891.364     264.174     -91.710

 3  4  5  6  7  8  9  10  11  12  13  21  23  27  28  29  30  32 0
 6-311+G(2d,p)
 ****
 34  35 0
 6-311+G(2d,p)
 ****
 1  2  14  15  16  17  18  19  20  22  24  25  26 0
 3-21G
 ****
 31  33  36  37  38  39  40  41  42  43  44  45  46 0
 3-21G
 ****


