%nproc=1
%NoSave
%Mem=1900MB
#P OB98/GEN NMR

erre ene a

0 1
  C      133.640     379.754     681.602
  O      132.899     380.828     682.143
  H      133.186     378.816     681.930
  H      134.670     379.788     681.967
  H      133.632     379.786     680.510
  P      133.252     382.322     681.683
  C      131.116     383.147     682.865
  O      132.522     383.314     682.707
  C      130.567     384.240     683.779
  O      130.620     385.520     683.109
  C      129.106     384.041     684.163
  O      128.955     383.029     685.136
  C      128.738     385.443     684.623
  O      129.158     385.670     685.977
  C      129.547     386.327     683.644
  N      128.708     386.870     682.578
  C      128.473     388.242     682.619
  O      128.941     388.986     683.482
  N      127.629     388.729     681.657
  C      126.902     387.978     680.779
  O      125.981     388.424     680.111
  C      127.234     386.545     680.744
  C      128.099     386.063     681.637
  O      133.029     382.623     680.240
  O      134.800     382.478     682.080
  H      135.347     382.379     681.277
  H      128.649     385.035     686.522
  H      127.419     389.717     681.707
  H      126.736     385.922     680.006
  H      128.340     385.000     681.649
  H      130.019     387.161     684.183
  H      127.661     385.613     684.576
  H      128.516     383.794     683.271
  H      131.202     384.297     684.675
  H      130.926     382.168     683.317
  H      130.639     383.186     681.878
  P      127.877     381.864     684.940
  C      128.221     380.857     687.279
  O      127.298     381.460     686.375
  O      128.332     380.713     684.100
  O      126.631     382.601     684.254
  H      126.357     382.094     683.466
  H      127.724     380.632     688.199
  H      129.030     381.532     687.466
  H      128.602     379.954     686.850

 6  7  8  9  10  11  12  13  14  15  16  27  31  32  33  34  35 0
 6-311+G(2d,p)
 ****
 36  37 0
 6-311+G(2d,p)
 ****
 1  2  3  4  5  17  18  19  20  21  22  23  24  25 0
 3-21G
 ****
 26  28  29  30  38  39  40  41  42  43  44  45 0
 3-21G
 ****


