%nproc=1
%NoSave
%Mem=1900MB
#P OB98/GEN NMR

erre ene a

0 1
  C      433.957     872.113     -80.509
  O      433.929     873.311     -81.258
  H      434.741     871.464     -80.911
  H      432.992     871.598     -80.595
  H      434.174     872.323     -79.457
  P      432.970     874.479     -80.720
  C      432.283     876.013     -82.736
  O      433.208     875.722     -81.707
  C      432.400     877.475     -83.180
  O      432.380     878.317     -81.998
  C      433.685     877.786     -83.945
  O      433.392     878.763     -84.947
  C      434.591     878.400     -82.888
  O      435.606     879.226     -83.463
  C      433.563     879.145     -82.017
  N      434.061     879.404     -80.672
  C      435.194     880.227     -80.566
  O      435.725     880.677     -81.576
  N      435.720     880.472     -79.317
  C      435.198     879.906     -78.273
  N      435.782     880.166     -77.072
  C      434.035     878.990     -78.345
  C      433.532     878.798     -79.554
  O      433.712     874.923     -79.372
  O      431.544     874.071     -80.537
  H      436.198     879.537     -82.749
  H      434.675     875.010     -79.475
  H      433.647     878.528     -77.445
  H      432.660     878.149     -79.704
  H      433.296     880.110     -82.477
  H      435.084     877.617     -82.308
  H      434.124     876.904     -84.422
  H      431.517     877.732     -83.769
  H      436.589     880.784     -77.080
  H      431.255     875.815     -82.403
  H      435.503     879.738     -76.203
  H      432.495     875.344     -83.585
  P      432.850     878.290     -86.382
  C      433.920     879.935     -88.085
  O      432.744     879.573     -87.352
  O      431.644     877.413     -86.358
  O      434.112     877.505     -86.989
  H      433.775     876.714     -87.452
  H      433.715     880.797     -88.685
  H      434.211     879.122     -88.716
  H      434.712     880.157     -87.401

 6  7  8  9  10  11  12  13  14  15  16  26  30  31  32  33  35 0
 6-311+G(2d,p)
 ****
 37  38 0
 6-311+G(2d,p)
 ****
 1  2  3  4  5  17  18  19  20  21  22  23  24  25 0
 3-21G
 ****
 27  28  29  34  36  39  40  41  42  43  44  45  46 0
 3-21G
 ****


