%nproc=1
%NoSave
%Mem=1900MB
#P OB98/GEN NMR

erre ene a

0 1
  C      144.314     179.165     -74.012
  O      145.319     178.910     -73.052
  H      143.897     180.159     -73.828
  H      143.514     178.426     -73.916
  H      144.728     179.136     -75.023
  P      146.201     177.587     -73.267
  C      148.731     177.046     -73.070
  O      147.737     178.048     -73.215
  C      150.122     177.659     -73.205
  O      150.289     178.239     -74.518
  C      150.415     178.775     -72.206
  O      150.829     178.260     -70.948
  C      151.558     179.487     -72.910
  O      152.778     178.735     -72.742
  C      151.104     179.439     -74.375
  N      151.265     183.945     -76.690
  C      152.279     183.042     -76.434
  N      153.516     183.394     -76.846
  N      152.101     181.899     -75.825
  C      150.814     181.686     -75.461
  C      149.723     182.501     -75.660
  C      149.934     183.757     -76.342
  O      149.068     184.584     -76.616
  N      148.579     181.939     -75.160
  C      148.977     180.796     -74.639
  N      150.327     180.597     -74.790
  O      145.974     177.236     -74.815
  O      145.846     176.432     -72.392
  H      153.481     179.237     -73.194
  H      145.957     176.265     -74.918
  H      151.461     184.816     -77.153
  H      148.333     180.080     -74.150
  H      151.944     179.351     -75.071
  H      151.741     180.485     -72.513
  H      153.732     184.280     -77.275
  H      149.566     179.459     -72.106
  H      154.270     182.734     -76.698
  H      150.858     176.852     -73.108
  H      148.595     176.287     -73.847
  H      148.622     176.576     -72.088
  P      150.227     178.952     -69.627
  C      150.146     178.234     -67.132
  O      150.278     177.823     -68.488
  O      148.666     179.070     -69.961
  O      150.829     180.269     -69.274
  H      148.263     179.780     -69.424
  H      150.199     177.377     -66.493
  H      149.203     178.722     -66.997
  H      150.936     178.912     -66.886

 6  7  8  9  10  11  12  13  14  15  26  29  33  34 0
 6-311+G(2d,p)
 ****
 36  38  39  40  41 0
 6-311+G(2d,p)
 ****
 1  2  3  4  5  16  17  18  19  20  21  22  23  24  25 0
 3-21G
 ****
 27  28  30  31  32  35  37  42  43  44  45  46  47 0
 3-21G
 ****
 48  49 0
 3-21G
 ****


