%nproc=1
%NoSave
%Mem=1900MB
#P OB98/GEN NMR

erre ene a

0 1
  C     -899.370     832.591    -202.471
  O     -898.040     833.065    -202.647
  H     -899.770     832.293    -203.440
  H     -900.000     833.377    -202.053
  H     -899.370     831.722    -201.793
  P     -897.200     833.372    -201.310
  C     -895.270     831.810    -202.032
  O     -895.650     833.127    -201.685
  C     -893.750     831.639    -201.844
  O     -893.350     832.078    -200.520
  C     -893.250     830.203    -201.987
  O     -893.070     829.830    -203.345
  C     -891.920     830.299    -201.250
  O     -890.940     830.923    -202.105
  C     -892.280     831.234    -200.064
  N     -890.810     829.218    -195.650
  C     -890.050     829.867    -196.634
  N     -888.740     830.005    -196.393
  N     -890.580     830.352    -197.728
  C     -891.910     830.142    -197.841
  C     -892.760     829.507    -196.942
  C     -892.180     828.995    -195.710
  O     -892.780     828.453    -194.811
  N     -894.030     829.501    -197.379
  C     -893.990     830.095    -198.558
  N     -892.710     830.496    -198.875
  O     -897.550     832.130    -200.363
  O     -897.500     834.673    -200.638
  H     -891.280     831.811    -202.336
  H     -897.590     832.444    -199.442
  H     -890.370     828.852    -194.823
  H     -894.830     830.275    -199.198
  H     -891.440     831.858    -199.776
  H     -891.520     829.320    -200.989
  H     -888.270     829.616    -195.595
  H     -893.910     829.496    -201.459
  H     -888.160     830.504    -197.071
  H     -893.250     832.293    -202.575
  H     -895.510     831.611    -203.080
  H     -895.790     831.082    -201.385
  P     -893.120     828.269    -203.722
  C     -893.940     828.942    -206.070
  O     -893.010     828.194    -205.319
  O     -894.640     827.890    -203.431
  O     -892.180     827.404    -202.946
  H     -894.730     826.930    -203.253
  H     -893.752     828.800    -207.114
  H     -893.842     829.980    -205.828
  H     -894.932     828.614    -205.839

 6  7  8  9  10  11  12  13  14  15  26  29  33  34 0
 6-311+G(2d,p)
 ****
 36  38  39  40  41 0
 6-311+G(2d,p)
 ****
 1  2  3  4  5  16  17  18  19  20  21  22  23  24  25 0
 3-21G
 ****
 27  28  30  31  32  35  37  42  43  44  45  46  47 0
 3-21G
 ****
 48  49 0
 3-21G
 ****


