%nproc=1
%NoSave
%Mem=1900MB
#P OB98/GEN NMR

erre ene a

0 1
  C      435.626     324.958     479.160
  O      436.746     324.276     478.631
  H      435.854     326.028     479.197
  H      435.410     324.607     480.172
  H      434.756     324.805     478.516
  P      436.627     322.678     478.524
  C      434.703     322.747     476.811
  O      436.068     322.420     477.040
  C      434.368     322.622     475.325
  O      432.935     322.779     475.160
  C      435.050     323.678     474.454
  O      435.439     323.089     473.212
  C      433.958     324.705     474.208
  O      434.165     325.445     473.012
  C      432.706     323.824     474.202
  N      429.549     327.516     472.642
  C      430.563     326.877     472.026
  N      431.347     325.888     472.511
  C      430.958     325.544     473.753
  C      429.948     326.108     474.510
  C      429.224     327.152     473.908
  N      428.208     327.825     474.534
  N      429.887     325.515     475.755
  C      430.834     324.593     475.747
  N      431.520     324.589     474.557
  O      435.865     322.012     479.621
  O      438.164     322.249     478.395
  H      433.456     326.118     472.938
  H      438.648     322.827     477.775
  H      430.781     327.203     471.012
  H      431.070     323.928     476.564
  H      432.519     323.371     473.223
  H      433.927     325.415     475.045
  H      435.922     324.120     474.941
  H      434.612     321.606     474.990
  H      434.497     323.766     477.148
  H      427.728     328.553     474.027
  H      427.931     327.556     475.473
  H      434.089     322.054     477.401
  P      436.982     323.156     472.785
  C      437.634     320.786     473.591
  O      437.493     321.664     472.475
  O      437.872     323.967     473.669
  O      436.906     323.796     471.316
  H      437.666     324.402     471.197
  H      437.978     319.831     473.252
  H      436.688     320.672     474.077
  H      438.342     321.196     474.280

 6  7  8  9  10  11  12  13  14  15  25  28  32  33  34  35 0
 6-311+G(2d,p)
 ****
 36  39  40 0
 6-311+G(2d,p)
 ****
 1  2  3  4  5  16  17  18  19  20  21  22  23  24 0
 3-21G
 ****
 26  27  29  30  31  37  38  41  42  43  44  45  46  47 0
 3-21G
 ****
 48 0
 3-21G
 ****


