%nproc=1
%NoSave
%Mem=1900MB
#P OB98/GEN NMR

erre ene a

0 1
  C     -225.744     623.549     657.983
  O     -226.715     622.613     657.564
  H     -225.855     623.709     659.060
  H     -225.895     624.504     657.472
  H     -224.735     623.181     657.787
  P     -226.670     622.075     656.056
  C     -227.574     619.968     654.876
  O     -227.115     620.535     656.099
  C     -228.053     618.536     655.117
  O     -226.950     617.712     655.556
  C     -229.115     618.421     656.205
  O     -230.379     618.861     655.749
  C     -229.024     616.937     656.527
  O     -229.773     616.155     655.586
  C     -227.510     616.667     656.381
  N     -226.836     616.596     657.679
  C     -227.286     615.616     658.551
  O     -228.188     614.826     658.289
  N     -226.697     615.609     659.792
  C     -225.830     616.554     660.265
  O     -225.528     616.649     661.450
  C     -225.338     617.526     659.278
  C     -225.867     617.513     658.050
  O     -225.405     622.346     655.310
  O     -227.923     622.788     655.360
  H     -227.605     623.540     654.826
  H     -229.606     615.224     655.827
  H     -227.052     614.927     660.450
  H     -224.596     618.248     659.593
  H     -225.550     618.239     657.311
  H     -227.339     615.718     655.847
  H     -229.412     616.724     657.524
  H     -228.801     618.996     657.085
  H     -228.419     618.135     654.164
  H     -226.737     619.956     654.162
  H     -228.375     620.591     654.471
  P     -231.500     619.319     656.796
  C     -233.189     621.236     657.075
  O     -232.129     620.703     656.291
  O     -231.068     619.304     658.229
  O     -232.699     618.283     656.563
  H     -232.978     617.917     657.422
  H     -233.525     622.155     656.642
  H     -232.840     621.417     658.070
  H     -233.999     620.537     657.102

 6  7  8  9  10  11  12  13  14  15  16  27  31  32  33  34  35 0
 6-311+G(2d,p)
 ****
 36  37 0
 6-311+G(2d,p)
 ****
 1  2  3  4  5  17  18  19  20  21  22  23  24  25 0
 3-21G
 ****
 26  28  29  30  38  39  40  41  42  43  44  45 0
 3-21G
 ****


