%nproc=1
%NoSave
%Mem=1900MB
#P OB98/GEN NMR

erre ene a

0 1
  C      173.162     110.471      76.647
  O      172.785     110.540      78.033
  P      173.175     111.849      78.884
  C      171.396     113.759      78.709
  O      171.825     112.573      79.361
  C      170.813     114.741      79.730
  O      170.715     116.066      79.161
  C      169.407     114.403      80.195
  O      169.397     113.340      81.133
  C      168.954     115.733      80.783
  O      169.435     115.891      82.129
  C      169.634     116.745      79.841
  N      168.702     117.346      78.889
  C      168.404     118.690      79.082
  O      168.838     119.348      80.027
  N      167.553     119.250      78.167
  C      166.933     118.594      77.141
  O      166.165     119.148      76.365
  C      167.223     117.158      77.038
  C      168.075     116.607      77.906
  O      173.699     112.846      77.740
  O      174.219     111.653      79.932
  H      168.962     116.658      82.507
  H      174.350     113.465      78.120
  H      167.346     120.231      78.271
  H      166.734     116.596      76.253
  H      168.302     115.545      77.843
  H      170.104     117.546      80.423
  H      167.864     115.826      80.819
  H      168.775     114.160      79.331
  H      171.502     114.790      80.587
  H      170.624     113.509      77.974
  H      172.247     114.206      78.186
  P      168.491     112.063      80.771
  C      169.630     110.982      78.681
  O      169.491     111.017      80.085
  O      167.609     112.649      79.567
  O      167.703     111.558      81.933
  H      168.103     113.292      79.032
  H      169.511     111.974      78.240
  H      168.879     110.307      78.262
  H      170.625     110.601      78.436
  H      172.829     109.542      76.233
  H      174.227     110.538      76.563
  H      172.711     111.282      76.114

 3  4  5  6  7  8  9  10  11  12  13  23  28  29  30  31  32 0
 6-311+G(2d,p)
 ****
 33  34 0
 6-311+G(2d,p)
 ****
 1  2  14  15  16  17  18  19  20  21  22  24  25  26 0
 3-21G
 ****
 27  35  36  37  38  39  40  41  42  43  44  45 0
 3-21G
 ****


