%nproc=1
%NoSave
%Mem=1900MB
#P OB98/GEN NMR

erre ene a

0 1
  C      387.068    -367.371    -244.137
  O      387.503    -367.266    -245.478
  H      387.941    -367.519    -243.501
  H      386.396    -368.228    -244.015
  H      386.561    -366.452    -243.827
  P      386.391    -367.162    -246.633
  C      385.284    -368.909    -248.198
  O      386.218    -368.674    -247.153
  C      385.864    -369.890    -249.215
  O      387.033    -369.333    -249.866
  C      386.343    -371.216    -248.630
  O      385.283    -372.087    -248.273
  C      387.163    -371.740    -249.797
  O      386.283    -372.242    -250.822
  C      387.878    -370.446    -250.265
  N      389.219    -370.303    -249.709
  C      390.279    -370.804    -250.472
  O      390.067    -371.339    -251.561
  N      391.554    -370.726    -249.971
  C      391.759    -370.204    -248.799
  N      393.037    -370.196    -248.330
  C      390.677    -369.645    -247.967
  C      389.445    -369.730    -248.470
  O      386.637    -366.145    -247.699
  O      385.015    -366.936    -245.842
  H      385.562    -371.597    -250.918
  H      384.296    -366.851    -246.517
  H      390.897    -369.232    -246.990
  H      388.594    -369.358    -247.912
  H      387.945    -370.417    -251.360
  H      387.836    -372.552    -249.518
  H      387.011    -371.044    -247.780
  H      385.104    -370.042    -249.998
  H      393.746    -370.626    -248.907
  H      385.048    -367.947    -248.669
  H      393.235    -370.072    -247.340
  H      384.361    -369.339    -247.793
  P      385.211    -372.604    -246.758
  C      385.792    -374.974    -245.834
  O      386.177    -373.889    -246.664
  O      383.741    -373.223    -246.655
  O      385.476    -371.572    -245.698
  H      383.106    -372.568    -246.304
  H      386.536    -375.741    -245.882
  H      384.854    -375.365    -246.170
  H      385.696    -374.634    -244.824

 6  7  8  9  10  11  12  13  14  15  16  26  30  31  32  33  35 0
 6-311+G(2d,p)
 ****
 37  38 0
 6-311+G(2d,p)
 ****
 1  2  3  4  5  17  18  19  20  21  22  23  24  25 0
 3-21G
 ****
 27  28  29  34  36  39  40  41  42  43  44  45  46 0
 3-21G
 ****


