%nproc=1
%NoSave
%Mem=1900MB
#P OB98/GEN NMR

erre ene a

0 1
  C     -133.950    -122.669    -331.747
  O     -134.005    -124.041    -332.082
  H     -134.391    -122.543    -330.752
  H     -134.529    -122.074    -332.455
  H     -132.913    -122.324    -331.721
  P     -133.605    -124.492    -333.576
  C     -134.864    -124.571    -335.811
  O     -134.997    -124.476    -334.401
  C     -136.233    -124.587    -336.508
  O     -136.918    -125.829    -336.199
  C     -137.156    -123.435    -336.079
  O     -137.739    -122.843    -337.241
  C     -138.222    -124.120    -335.234
  O     -139.440    -123.377    -335.197
  C     -138.294    -125.498    -335.905
  N     -138.927    -126.509    -335.065
  C     -140.184    -126.966    -335.477
  O     -140.721    -126.483    -336.475
  N     -140.819    -127.924    -334.727
  C     -140.280    -128.350    -333.625
  N     -140.964    -129.288    -332.921
  C     -138.961    -127.860    -333.126
  C     -138.350    -126.959    -333.900
  O     -132.844    -125.768    -333.656
  O     -132.820    -123.233    -334.179
  H     -139.613    -123.028    -336.113
  H     -132.271    -123.528    -334.947
  H     -138.559    -128.246    -332.206
  H     -137.389    -126.554    -333.616
  H     -138.838    -125.440    -336.861
  H     -137.855    -124.226    -334.199
  H     -136.640    -122.657    -335.516
  H     -136.075    -124.590    -337.592
  H     -141.859    -129.594    -333.296
  H     -134.305    -125.489    -336.051
  H     -140.637    -129.690    -332.052
  H     -134.294    -123.702    -336.164
  P     -137.273    -121.342    -337.589
  C     -137.692    -118.967    -336.630
  O     -138.066    -120.345    -336.606
  O     -137.939    -121.076    -339.020
  O     -135.787    -121.175    -337.614
  H     -137.270    -121.189    -339.726
  H     -138.294    -118.422    -335.934
  H     -137.840    -118.574    -337.614
  H     -136.661    -118.873    -336.360

 6  7  8  9  10  11  12  13  14  15  16  26  30  31  32  33  35 0
 6-311+G(2d,p)
 ****
 37  38 0
 6-311+G(2d,p)
 ****
 1  2  3  4  5  17  18  19  20  21  22  23  24  25 0
 3-21G
 ****
 27  28  29  34  36  39  40  41  42  43  44  45  46 0
 3-21G
 ****


