%nproc=1
%NoSave
%Mem=1900MB
#P OB98/GEN NMR

erre ene a

0 1
  C       19.328    -203.154      53.686
  O       20.686    -203.514      53.941
  P       21.144    -205.003      53.548
  C       19.888    -206.176      55.520
  O       20.002    -205.979      54.120
  C       19.289    -207.557      55.825
  O       19.501    -207.881      57.232
  C       17.788    -207.673      55.539
  O       17.564    -208.997      55.033
  C       17.164    -207.525      56.917
  O       15.860    -208.084      56.976
  C       18.214    -208.237      57.780
  N       18.113    -207.887      59.194
  C       17.833    -208.919      60.083
  O       17.593    -210.068      59.717
  N       17.789    -208.573      61.405
  C       17.917    -207.310      61.910
  O       17.870    -207.059      63.109
  C       18.101    -206.244      60.913
  C       18.186    -206.577      59.621
  O       22.384    -205.224      54.528
  O       21.447    -205.154      52.091
  H       22.264    -204.819      55.403
  H       15.905    -209.027      56.718
  H       17.618    -209.313      62.071
  H       18.147    -205.222      61.271
  H       18.296    -205.813      58.863
  H       18.109    -209.327      57.686
  H       17.101    -206.466      57.183
  H       17.434    -206.938      54.816
  H       19.840    -208.299      55.238
  H       19.240    -205.410      55.952
  H       20.875    -206.061      55.982
  P       16.955    -209.152      53.552
  C       14.501    -208.516      54.215
  O       15.664    -208.209      53.474
  O       16.319    -210.624      53.664
  O       17.945    -209.035      52.442
  H       15.798    -210.750      54.475
  H       13.840    -207.645      54.210
  H       14.745    -208.765      55.250
  H       13.973    -209.356      53.745
  H       19.163    -202.143      53.994
  H       18.678    -203.804      54.234
  H       19.125    -203.246      52.639

 3  4  5  6  7  8  9  10  11  12  13  24  28  29  30  31  32 0
 6-311+G(2d,p)
 ****
 33  34 0
 6-311+G(2d,p)
 ****
 1  2  14  15  16  17  18  19  20  21  22  23  25  26  27 0
 3-21G
 ****
 35  36  37  38  39  40  41  42  43  44  45 0
 3-21G
 ****


