%nproc=1
%NoSave
%Mem=1900MB
#P OB98/GEN NMR

erre ene a

0 1
  C       41.273     -71.039    -242.241
  O       42.396     -70.520    -242.934
  P       42.329     -69.113    -243.708
  C       42.500     -70.369    -245.963
  O       41.761     -69.457    -245.167
  C       42.362     -70.013    -247.445
  O       40.981     -70.223    -247.846
  C       42.724     -68.562    -247.785
  O       43.327     -68.565    -249.083
  C       41.372     -67.875    -247.824
  O       41.389     -66.674    -248.581
  C       40.500     -68.990    -248.414
  N       39.083     -68.800    -248.133
  C       38.408     -67.794    -248.828
  O       39.002     -67.076    -249.633
  N       37.066     -67.619    -248.595
  C       36.467     -68.327    -247.688
  N       35.125     -68.157    -247.540
  C       37.164     -69.322    -246.855
  C       38.448     -69.522    -247.145
  O       43.599     -68.336    -243.702
  O       41.093     -68.352    -243.043
  H       40.466     -66.382    -248.714
  H       41.339     -67.864    -242.218
  H       36.629     -69.870    -246.089
  H       39.034     -70.252    -246.601
  H       40.655     -69.060    -249.496
  H       41.058     -67.626    -246.806
  H       43.420     -68.119    -247.067
  H       42.982     -70.709    -248.027
  H       34.657     -67.593    -248.242
  H       42.097     -71.373    -245.803
  H       34.556     -68.873    -247.107
  H       43.551     -70.364    -245.652
  P       44.815     -67.982    -249.235
  C       43.874     -65.647    -249.865
  O       44.749     -66.394    -249.045
  O       45.058     -68.119    -250.819
  O       45.891     -68.707    -248.495
  H       46.016     -68.185    -250.989
  H       43.954     -64.590    -249.594
  H       42.839     -65.966    -249.715
  H       44.149     -65.758    -250.918
  H       41.530     -71.979    -241.799
  H       40.463     -71.177    -242.927
  H       40.979     -70.353    -241.474

 3  4  5  6  7  8  9  10  11  12  13  23  27  28  29  30  32 0
 6-311+G(2d,p)
 ****
 34  35 0
 6-311+G(2d,p)
 ****
 1  2  14  15  16  17  18  19  20  21  22  24  25  26 0
 3-21G
 ****
 31  33  36  37  38  39  40  41  42  43  44  45  46 0
 3-21G
 ****


