%nproc=1
%NoSave
%Mem=1900MB
#P OB98/GEN NMR

erre ene a

0 1
  C       17.816    -178.525    -237.250
  O       16.791    -177.660    -237.742
  P       16.450    -176.325    -236.923
  C       16.035    -174.625    -238.813
  O       16.928    -175.067    -237.797
  C       16.649    -174.828    -240.199
  O       16.893    -176.221    -240.477
  C       15.757    -174.341    -241.328
  O       15.757    -172.926    -241.401
  C       16.372    -175.053    -242.523
  O       17.518    -174.338    -243.016
  C       16.814    -176.399    -241.908
  N       15.938    -177.507    -242.259
  C       16.123    -178.054    -243.533
  O       16.959    -177.574    -244.300
  N       15.344    -179.120    -243.910
  C       14.456    -179.591    -243.090
  N       13.716    -180.650    -243.515
  C       14.222    -179.035    -241.743
  C       14.985    -178.000    -241.400
  O       16.886    -176.313    -235.497
  O       14.852    -176.238    -237.039
  H       17.175    -173.494    -243.371
  H       14.502    -175.794    -236.242
  H       13.474    -179.467    -241.094
  H       14.878    -177.528    -240.430
  H       17.828    -176.654    -242.243
  H       15.665    -175.140    -243.354
  H       14.733    -174.703    -241.171
  H       17.610    -174.293    -240.228
  H       13.888    -181.005    -244.447
  H       15.803    -173.568    -238.660
  H       13.036    -181.118    -242.931
  H       15.092    -175.173    -238.717
  P       14.781    -172.130    -240.410
  C       16.249    -170.756    -238.774
  O       15.543    -171.957    -239.012
  O       13.645    -173.212    -240.079
  O       14.190    -170.882    -240.979
  H       12.789    -172.760    -239.960
  H       16.431    -170.665    -237.699
  H       15.682    -169.883    -239.110
  H       17.212    -170.787    -239.292
  H       17.920    -179.364    -237.906
  H       17.554    -178.868    -236.271
  H       18.742    -177.991    -237.205

 3  4  5  6  7  8  9  10  11  12  13  23  27  28  29  30  32 0
 6-311+G(2d,p)
 ****
 34  35 0
 6-311+G(2d,p)
 ****
 1  2  14  15  16  17  18  19  20  21  22  24  25  26 0
 3-21G
 ****
 31  33  36  37  38  39  40  41  42  43  44  45  46 0
 3-21G
 ****


