%nproc=1
%NoSave
%Mem=1900MB
#P OB98/GEN NMR

erre ene a

0 1
  C      257.851     239.517     -96.639
  O      258.770     238.912     -97.525
  H      258.342     240.311     -96.073
  H      257.034     239.951     -97.221
  H      257.438     238.771     -95.954
  P      260.059     238.229     -96.854
  C      259.659     235.769     -97.548
  O      259.645     236.718     -96.492
  C      259.177     234.412     -97.038
  O      259.980     234.050     -95.884
  C      257.698     234.392     -96.615
  O      257.017     233.286     -97.221
  C      257.744     234.168     -95.115
  O      256.660     233.379     -94.637
  C      259.087     233.475     -94.922
  N      258.234     232.384     -90.017
  C      257.802     231.792     -91.152
  N      258.142     232.070     -92.425
  C      259.055     233.057     -92.468
  C      259.608     233.738     -91.396
  C      259.143     233.379     -90.120
  N      259.544     234.019     -88.966
  N      260.508     234.691     -91.832
  C      260.466     234.617     -93.148
  N      259.591     233.653     -93.577
  O      260.151     238.949     -95.425
  O      261.320     238.388     -97.631
  H      256.796     233.248     -93.680
  H      261.002     239.423     -95.367
  H      257.078     230.990     -91.018
  H      261.007     235.259     -93.830
  H      259.023     232.399     -95.126
  H      257.718     235.138     -94.608
  H      257.175     235.319     -96.864
  H      259.365     233.660     -97.812
  H      260.679     235.663     -97.932
  H      259.074     233.777     -88.109
  H      260.135     234.834     -89.049
  H      259.013     236.124     -98.357
  P      256.138     233.623     -98.526
  C      257.164     231.932    -100.209
  O      257.027     233.294     -99.823
  O      256.056     235.221     -98.506
  O      254.780     233.008     -98.511
  H      255.122     235.507     -98.509
  H      257.779     231.869    -101.083
  H      256.199     231.523    -100.422
  H      257.618     231.380     -99.413

 6  7  8  9  10  11  12  13  14  15  25  28  32  33  34  35 0
 6-311+G(2d,p)
 ****
 36  39  40 0
 6-311+G(2d,p)
 ****
 1  2  3  4  5  16  17  18  19  20  21  22  23  24 0
 3-21G
 ****
 26  27  29  30  31  37  38  41  42  43  44  45  46  47  48 0
 3-21G
 ****


