%nproc=1
%NoSave
%Mem=1900MB
#P OB98/GEN NMR

erre ene a

0 1
  C      157.275     437.742    -227.142
  O      158.451     438.261    -227.733
  H      156.409     438.155    -227.664
  H      157.225     438.034    -226.089
  H      157.252     436.650    -227.230
  P      159.845     437.640    -227.231
  C      161.238     437.970    -225.028
  O      160.215     438.439    -225.889
  C      161.681     439.073    -224.067
  O      162.481     440.034    -224.801
  C      160.519     439.830    -223.421
  O      160.894     440.177    -222.083
  C      160.415     441.094    -224.257
  O      159.780     442.155    -223.550
  C      161.889     441.338    -224.614
  N      162.044     442.175    -225.803
  C      162.319     443.528    -225.587
  O      162.409     443.968    -224.440
  N      162.446     444.361    -226.670
  C      162.250     443.899    -227.864
  N      162.365     444.779    -228.894
  C      161.912     442.486    -228.137
  C      161.838     441.688    -227.074
  O      160.870     438.218    -228.313
  O      159.850     436.153    -227.109
  H      158.881     441.861    -223.283
  H      160.733     439.161    -228.513
  H      161.749     442.146    -229.152
  H      161.602     440.634    -227.182
  H      162.412     441.826    -223.781
  H      159.832     440.899    -225.163
  H      159.592     439.252    -223.407
  H      162.336     438.631    -223.306
  H      162.575     445.743    -228.660
  H      162.100     437.627    -225.610
  H      162.180     444.542    -229.858
  H      160.843     437.113    -224.468
  P      160.265     439.366    -220.853
  C      158.089     439.447    -219.460
  O      158.716     439.746    -220.702
  O      161.055     439.395    -219.589
  O      160.193     437.863    -221.425
  H      160.457     437.259    -220.705
  H      157.064     439.751    -219.496
  H      158.589     439.971    -218.673
  H      158.143     438.394    -219.278

 6  7  8  9  10  11  12  13  14  15  16  26  30  31  32  33  35 0
 6-311+G(2d,p)
 ****
 37  38 0
 6-311+G(2d,p)
 ****
 1  2  3  4  5  17  18  19  20  21  22  23  24  25 0
 3-21G
 ****
 27  28  29  34  36  39  40  41  42  43  44  45  46 0
 3-21G
 ****


