%nproc=1
%NoSave
%Mem=1900MB
#P OB98/GEN NMR

erre ene a

0 1
  C      622.681     458.891     390.344
  O      622.538     458.680     391.732
  H      623.736     459.077     390.125
  H      622.099     459.763     390.021
  H      622.364     457.999     389.786
  P      621.055     458.496     392.325
  C      622.021     459.619     394.455
  O      621.258     458.542     393.915
  C      621.966     459.601     395.979
  O      620.619     459.859     396.448
  C      622.351     458.276     396.622
  O      623.742     458.018     396.592
  C      621.831     458.499     398.029
  O      622.730     459.373     398.738
  C      620.478     459.208     397.741
  N      619.346     458.291     397.736
  C      618.681     458.097     398.950
  O      619.055     458.683     399.968
  N      617.630     457.211     399.004
  C      617.283     456.566     397.935
  N      616.262     455.669     398.051
  C      617.940     456.747     396.631
  C      618.953     457.616     396.598
  O      620.276     457.323     391.812
  O      620.343     459.904     392.049
  H      623.564     458.887     398.851
  H      619.415     459.838     392.391
  H      617.615     456.180     395.765
  H      619.500     457.789     395.680
  H      620.293     459.998     398.479
  H      621.740     457.583     398.614
  H      621.795     457.447     396.163
  H      622.595     460.426     396.344
  H      615.862     455.533     398.971
  H      621.613     460.554     394.052
  H      616.115     454.936     397.349
  H      623.064     459.533     394.144
  P      624.264     456.784     395.698
  C      625.287     455.464     397.707
  O      625.513     456.146     396.483
  O      624.937     457.513     394.436
  O      623.216     455.794     395.289
  H      624.306     457.599     393.704
  H      626.218     455.105     398.092
  H      624.628     454.638     397.539
  H      624.844     456.135     398.413

 6  7  8  9  10  11  12  13  14  15  16  26  30  31  32  33  35 0
 6-311+G(2d,p)
 ****
 37  38 0
 6-311+G(2d,p)
 ****
 1  2  3  4  5  17  18  19  20  21  22  23  24  25 0
 3-21G
 ****
 27  28  29  34  36  39  40  41  42  43  44  45  46 0
 3-21G
 ****


