%nproc=1
%NoSave
%Mem=1900MB
#P OB98/GEN NMR

erre ene a

0 1
  C     -533.818    -148.828     291.788
  O     -534.326    -148.523     293.092
  P     -533.905    -147.102     293.707
  C     -533.817    -147.602     296.264
  O     -534.530    -147.001     295.190
  C     -534.804    -148.212     297.256
  O     -535.493    -149.356     296.708
  C     -534.129    -148.735     298.524
  O     -533.756    -147.665     299.384
  C     -535.227    -149.651     299.077
  O     -536.229    -148.865     299.757
  C     -535.817    -150.253     297.790
  N     -536.567    -155.263     298.479
  C     -537.259    -154.185     298.905
  N     -536.998    -152.882     298.676
  C     -535.884    -152.743     297.924
  C     -535.087    -153.745     297.411
  C     -535.464    -155.066     297.724
  N     -534.749    -156.170     297.287
  N     -534.045    -153.221     296.678
  C     -534.201    -151.915     296.768
  N     -535.313    -151.579     297.498
  O     -534.774    -146.056     292.858
  O     -532.441    -146.818     293.622
  H     -537.034    -149.424     299.835
  H     -534.193    -145.567     292.253
  H     -538.133    -154.394     299.512
  H     -533.543    -151.175     296.322
  H     -536.906    -150.325     297.845
  H     -534.845    -150.387     299.794
  H     -533.245    -149.336     298.275
  H     -535.549    -147.447     297.522
  H     -533.190    -146.865     296.768
  H     -535.045    -157.078     297.628
  H     -533.877    -156.033     296.804
  H     -533.154    -148.366     295.848
  P     -532.463    -147.869     300.315
  C     -533.398    -147.968     302.708
  O     -532.861    -147.131     301.690
  O     -531.428    -146.851     299.657
  O     -531.997    -149.283     300.441
  H     -531.845    -145.980     299.460
  H     -533.588    -147.349     303.590
  H     -532.678    -148.746     302.971
  H     -534.328    -148.418     302.374
  H     -534.165    -149.795     291.487
  H     -532.748    -148.824     291.812
  H     -534.162    -148.093     291.090

 3  4  5  6  7  8  9  10  11  12  22  25  29  30  31  32 0
 6-311+G(2d,p)
 ****
 33  36  37 0
 6-311+G(2d,p)
 ****
 1  2  13  14  15  16  17  18  19  20  21  23  24  26 0
 3-21G
 ****
 27  28  34  35  38  39  40  41  42  43  44  45  46  47  48 0
 3-21G
 ****


