%nproc=1
%NoSave
%Mem=1900MB
#P OB98/GEN NMR

erre ene a

0 1
  C      180.312    -895.410     608.706
  O      181.224    -895.200     609.797
  P      181.828    -893.737     610.005
  C      183.840    -894.420     608.490
  O      183.395    -893.788     609.693
  C      185.363    -894.563     608.494
  O      186.036    -893.281     608.546
  C      185.903    -895.350     609.702
  O      185.808    -896.760     609.496
  C      187.366    -894.924     609.718
  O      188.093    -895.660     608.737
  C      187.264    -893.449     609.314
  N      190.109    -890.787     612.555
  C      190.475    -891.595     611.483
  N      191.803    -891.717     611.256
  N      189.637    -892.227     610.737
  C      188.334    -892.020     611.070
  C      187.840    -891.244     612.105
  C      188.789    -890.544     612.942
  O      188.520    -889.834     613.905
  N      186.455    -891.277     612.134
  C      186.120    -892.047     611.112
  N      187.233    -892.556     610.458
  O      181.785    -893.553     611.609
  O      181.061    -892.652     609.314
  H      188.206    -896.570     609.103
  H      181.703    -892.627     611.839
  H      190.804    -890.323     613.100
  H      185.110    -892.286     610.833
  H      188.086    -893.133     608.679
  H      187.840    -895.110     610.684
  H      192.508    -891.194     611.769
  H      185.400    -895.040     610.639
  H      192.089    -892.269     610.468
  H      185.656    -895.090     607.585
  H      183.533    -893.827     607.616
  H      183.346    -895.390     608.400
  P      184.520    -897.520     610.083
  C      186.235    -898.980     611.355
  O      185.045    -898.940     610.598
  O      183.698    -897.870     608.735
  O      183.701    -896.720     611.029
  H      182.757    -897.890     608.933
  H      186.365    -900.000     611.766
  H      186.208    -898.270     612.181
  H      187.109    -898.760     610.711
  H      179.996    -896.432     608.697
  H      180.801    -895.180     607.783
  H      179.460    -894.774     608.826

 3  4  5  6  7  8  9  10  11  12  23  26  30  31 0
 6-311+G(2d,p)
 ****
 33  35  36  37  38 0
 6-311+G(2d,p)
 ****
 1  2  13  14  15  16  17  18  19  20  21  22  24  25 0
 3-21G
 ****
 27  28  29  32  34  39  40  41  42  43  44  45  46  47  48  49 0
 3-21G
 ****


