%nproc=1
%NoSave
%Mem=1900MB
#P OB98/GEN NMR

erre ene a

0 1
  C     -526.645    -277.453     192.266
  O     -527.583    -276.746     191.477
  P     -528.403    -275.516     192.080
  C     -530.634    -276.820     191.594
  O     -529.865    -276.030     192.473
  C     -531.778    -277.472     192.381
  O     -531.250    -278.450     193.302
  C     -532.561    -276.441     193.187
  O     -533.700    -276.002     192.461
  C     -532.912    -277.205     194.452
  O     -534.060    -278.040     194.235
  C     -531.646    -278.073     194.649
  N     -530.478    -277.463     195.312
  C     -529.457    -278.277     195.795
  O     -529.442    -279.495     195.675
  N     -528.438    -277.629     196.456
  C     -528.338    -276.279     196.630
  O     -527.567    -275.736     197.416
  C     -529.291    -275.467     195.869
  C     -530.315    -276.085     195.279
  O     -528.669    -274.594     190.798
  O     -527.725    -274.766     193.177
  H     -534.849    -277.475     194.318
  H     -528.025    -273.865     190.759
  H     -527.769    -278.226     196.927
  H     -529.162    -274.393     195.866
  H     -531.060    -275.504     194.739
  H     -531.883    -278.992     195.196
  H     -533.177    -276.525     195.261
  H     -531.914    -275.594     193.456
  H     -532.441    -277.996     191.680
  H     -530.003    -277.586     191.128
  H     -531.035    -276.200     190.786
  P     -534.410    -274.624     192.862
  C     -536.735    -275.630     193.253
  O     -535.600    -275.037     193.857
  O     -534.797    -273.744     191.721
  O     -533.329    -273.919     193.814
  H     -532.808    -273.269     193.302
  H     -537.385    -276.023     194.040
  H     -536.437    -276.453     192.596
  H     -537.288    -274.881     192.682
  H     -526.206    -278.235     191.683
  H     -527.140    -277.876     193.115
  H     -525.880    -276.782     192.597

 3  4  5  6  7  8  9  10  11  12  13  23  28  29  30  31  32 0
 6-311+G(2d,p)
 ****
 33  34 0
 6-311+G(2d,p)
 ****
 1  2  14  15  16  17  18  19  20  21  22  24  25  26  27 0
 3-21G
 ****
 35  36  37  38  39  40  41  42  43  44  45 0
 3-21G
 ****


