%nproc=1
%NoSave
%Mem=1900MB
#P OB98/GEN NMR

erre ene a

0 1
  C      -25.861     196.032     -82.720
  O      -25.251     194.959     -82.030
  H      -25.078     196.698     -83.092
  H      -26.506     196.598     -82.042
  H      -26.443     195.667     -83.570
  P      -26.169     193.752     -81.513
  C      -26.926     193.902     -79.051
  O      -27.135     194.352     -80.384
  C      -25.880     194.779     -78.366
  O      -26.105     196.169     -78.690
  C      -25.910     194.699     -76.846
  O      -25.314     193.502     -76.383
  C      -25.160     195.968     -76.477
  O      -23.740     195.772     -76.574
  C      -25.657     196.951     -77.559
  N      -26.715     197.839     -77.078
  C      -26.373     199.176     -76.906
  O      -25.240     199.616     -77.106
  N      -27.376     199.996     -76.461
  C      -28.622     199.600     -76.075
  O      -29.458     200.361     -75.599
  C      -28.921     198.171     -76.254
  C      -27.970     197.369     -76.741
  O      -25.444     192.507     -81.128
  O      -27.172     193.491     -82.737
  H      -23.337     196.662     -76.539
  H      -26.902     192.679     -83.207
  H      -27.143     200.967     -76.318
  H      -29.903     197.819     -75.974
  H      -28.169     196.313     -76.875
  H      -24.825     197.573     -77.918
  H      -25.370     196.291     -75.457
  H      -26.942     194.781     -76.484
  H      -24.891     194.498     -78.753
  H      -26.572     192.867     -79.081
  H      -27.879     193.938     -78.510
  P      -25.670     192.942     -74.927
  C      -24.071     193.218     -72.934
  O      -24.935     193.879     -73.852
  O      -25.462     191.478     -74.737
  O      -27.215     193.325     -74.741
  H      -27.737     192.509     -74.614
  H      -23.639     193.937     -72.270
  H      -23.293     192.718     -73.473
  H      -24.631     192.502     -72.370

 6  7  8  9  10  11  12  13  14  15  16  26  31  32  33  34  35 0
 6-311+G(2d,p)
 ****
 36  37 0
 6-311+G(2d,p)
 ****
 1  2  3  4  5  17  18  19  20  21  22  23  24  25 0
 3-21G
 ****
 27  28  29  30  38  39  40  41  42  43  44  45 0
 3-21G
 ****


