%nproc=1
%NoSave
%Mem=1900MB
#P OB98/GEN NMR

erre ene a

0 1
  C       34.120      77.115     -18.258
  O       32.793      76.680     -18.045
  H       34.216      78.172     -18.002
  H       34.789      76.534     -17.618
  H       34.406      76.957     -19.301
  P       31.643      77.437     -18.868
  C       30.980      75.279     -20.143
  O       30.556      76.327     -19.282
  C       30.258      73.984     -19.780
  O       30.861      73.446     -18.576
  C       28.749      74.140     -19.528
  O       28.009      73.293     -20.412
  C       28.548      73.642     -18.105
  O       27.366      72.861     -17.944
  C       29.805      72.822     -17.838
  N       28.707      70.508     -13.434
  C       28.550      70.110     -14.715
  N       28.960      70.727     -15.841
  C       29.620      71.860     -15.548
  C       29.880      72.382     -14.293
  C       29.374      71.662     -13.198
  N       29.487      72.094     -11.895
  N       30.578      73.571     -14.391
  C       30.698      73.785     -15.685
  N       30.118      72.788     -16.423
  O       32.359      77.796     -20.255
  O       31.085      78.650     -18.204
  H       26.612      73.455     -18.123
  H       32.191      78.730     -20.477
  H       28.015      69.175     -14.855
  H       31.150      74.657     -16.139
  H       29.707      71.789     -18.193
  H       28.486      74.505     -17.432
  H       28.407      75.176     -19.634
  H       30.435      73.256     -20.581
  H       32.059      75.127     -20.031
  H       28.994      71.578     -11.186
  H       29.885      73.006     -11.722
  H       30.773      75.563     -21.179
  P       26.440      73.613     -20.571
  C       26.519      74.420     -23.044
  O       26.071      73.435     -22.123
  O       26.374      75.197     -20.356
  O       25.572      72.879     -19.606
  H       25.496      75.452     -20.015
  H       26.195      74.160     -24.030
  H       27.588      74.470     -23.021
  H       26.112      75.372     -22.774

 6  7  8  9  10  11  12  13  14  15  25  28  32  33  34  35 0
 6-311+G(2d,p)
 ****
 36  39  40 0
 6-311+G(2d,p)
 ****
 1  2  3  4  5  16  17  18  19  20  21  22  23  24 0
 3-21G
 ****
 26  27  29  30  31  37  38  41  42  43  44  45  46  47  48 0
 3-21G
 ****


