%nproc=1
%NoSave
%Mem=1900MB
#P OB98/GEN NMR

erre ene a

0 1
  C      281.446     337.597     -61.274
  O      280.994     336.317     -60.897
  P      281.832     335.311     -59.987
  C      282.503     333.761     -61.984
  O      282.927     334.586     -60.906
  C      283.336     332.473     -62.053
  O      282.919     331.716     -63.219
  C      284.832     332.779     -62.231
  O      285.690     331.955     -61.453
  C      285.010     332.739     -63.743
  O      286.355     332.544     -64.154
  C      284.026     331.641     -64.142
  N      284.848     330.638     -69.056
  C      285.514     330.155     -67.947
  N      286.650     329.465     -68.189
  N      285.117     330.364     -66.718
  C      284.030     331.167     -66.628
  C      283.287     331.700     -67.656
  C      283.717     331.434     -69.008
  O      283.222     331.936     -70.017
  N      282.293     332.519     -67.190
  C      282.452     332.511     -65.881
  N      283.516     331.727     -65.496
  O      281.057     334.474     -59.023
  O      282.740     336.333     -59.125
  H      286.446     332.911     -65.052
  H      282.859     335.934     -58.241
  H      285.250     330.509     -69.976
  H      281.851     333.069     -65.174
  H      284.472     330.650     -64.051
  H      284.695     333.711     -64.139
  H      287.055     329.415     -69.110
  H      285.064     333.790     -61.876
  H      287.279     329.319     -67.403
  H      283.133     331.862     -61.169
  H      282.642     334.351     -62.896
  H      281.438     333.530     -61.893
  P      287.194     332.231     -60.987
  C      288.211     330.873     -62.911
  O      288.151     332.133     -62.268
  O      287.607     330.942     -60.136
  O      287.377     333.469     -60.173
  H      288.142     331.217     -59.367
  H      289.082     330.859     -63.575
  H      287.310     330.722     -63.509
  H      288.308     330.067     -62.179
  H      280.705     338.072     -61.882
  H      282.356     337.505     -61.829
  H      281.620     338.186     -60.398

 3  4  5  6  7  8  9  10  11  12  23  26  30  31 0
 6-311+G(2d,p)
 ****
 33  35  36  37  38 0
 6-311+G(2d,p)
 ****
 1  2  13  14  15  16  17  18  19  20  21  22  24  25 0
 3-21G
 ****
 27  28  29  32  34  39  40  41  42  43  44  45  46  47  48  49 0
 3-21G
 ****


