%nproc=1
%NoSave
%Mem=1900MB
#P OB98/GEN NMR

erre ene a

0 1
  C      249.990     205.807     122.072
  O      250.710     204.967     121.193
  H      249.170     206.286     121.531
  H      249.570     205.197     122.876
  H      250.644     206.566     122.509
  P      251.658     205.679     120.111
  C      251.251     206.770     117.792
  O      250.680     206.339     119.018
  C      250.467     206.199     116.610
  O      250.814     204.794     116.459
  C      248.941     206.293     116.759
  O      248.379     206.605     115.479
  C      248.542     204.879     117.142
  O      247.198     204.571     116.786
  C      249.581     204.061     116.379
  N      249.193     199.094     115.356
  C      249.268     200.177     114.554
  N      249.425     201.467     114.909
  C      249.575     201.579     116.241
  C      249.527     200.568     117.185
  C      249.307     199.270     116.694
  N      249.157     198.169     117.507
  N      249.666     201.089     118.457
  C      249.768     202.393     118.282
  N      249.717     202.737     116.962
  O      252.295     204.427     119.337
  O      252.705     206.582     120.666
  H      247.115     204.592     115.812
  H      253.100     204.133     119.799
  H      249.181     199.984     113.487
  H      249.849     203.127     119.072
  H      249.323     203.929     115.323
  H      248.651     204.747     118.222
  H      248.613     207.034     117.497
  H      250.797     206.709     115.696
  H      252.286     206.418     117.734
  H      248.895     197.297     117.072
  H      249.130     198.299     118.507
  H      251.250     207.865     117.756
  P      248.108     208.151     115.151
  C      246.368     209.925     115.932
  O      246.664     208.548     115.717
  O      247.899     208.157     113.566
  O      249.221     209.062     115.562
  H      248.228     208.991     113.183
  H      245.371     210.021     116.309
  H      246.452     210.457     115.007
  H      247.058     210.332     116.641

 6  7  8  9  10  11  12  13  14  15  25  28  32  33  34  35 0
 6-311+G(2d,p)
 ****
 36  39  40 0
 6-311+G(2d,p)
 ****
 1  2  3  4  5  16  17  18  19  20  21  22  23  24 0
 3-21G
 ****
 26  27  29  30  31  37  38  41  42  43  44  45  46  47 0
 3-21G
 ****
 48 0
 3-21G
 ****


