%nproc=1
%NoSave
%Mem=1900MB
#P OB98/GEN NMR

erre ene a

0 1
  C     -658.391    -485.827     254.823
  O     -657.016    -485.624     255.081
  H     -658.954    -484.983     255.238
  H     -658.740    -486.745     255.297
  H     -658.566    -485.872     253.743
  P     -655.982    -486.784     254.675
  C     -656.196    -487.828     257.036
  O     -656.293    -488.033     255.634
  C     -655.847    -489.138     257.756
  O     -656.945    -490.080     257.573
  C     -654.566    -489.823     257.224
  O     -653.978    -490.544     258.312
  C     -655.150    -490.783     256.197
  O     -654.202    -491.745     255.804
  C     -656.396    -491.262     256.951
  N     -657.356    -491.909     256.066
  C     -657.127    -493.249     255.772
  O     -656.132    -493.830     256.239
  N     -657.988    -493.910     254.939
  C     -658.970    -493.260     254.388
  N     -659.783    -493.963     253.557
  C     -659.220    -491.814     254.620
  C     -658.381    -491.213     255.470
  O     -654.543    -486.378     254.625
  O     -656.502    -487.284     253.250
  H     -654.602    -492.398     255.178
  H     -655.921    -486.941     252.546
  H     -660.041    -491.321     254.120
  H     -658.488    -490.156     255.705
  H     -656.117    -491.966     257.741
  H     -655.440    -490.245     255.290
  H     -653.852    -489.110     256.806
  H     -655.767    -488.941     258.833
  H     -659.563    -494.939     253.414
  H     -657.162    -487.463     257.386
  H     -660.569    -493.565     253.056
  H     -655.428    -487.074     257.248
  P     -652.929    -489.882     259.326
  C     -650.798    -491.116     258.558
  O     -651.468    -489.856     258.658
  O     -652.953    -490.466     260.701
  O     -653.332    -488.320     259.380
  H     -653.113    -487.958     260.269
  H     -649.841    -490.976     258.100
  H     -651.383    -491.785     257.963
  H     -650.668    -491.530     259.536

 6  7  8  9  10  11  12  13  14  15  16  26  30  31  32  33  35 0
 6-311+G(2d,p)
 ****
 37  38 0
 6-311+G(2d,p)
 ****
 1  2  3  4  5  17  18  19  20  21  22  23  24  25 0
 3-21G
 ****
 27  28  29  34  36  39  40  41  42  43  44  45  46 0
 3-21G
 ****


