%nproc=1
%NoSave
%Mem=1900MB
#P OB98/GEN NMR

erre ene a

0 1
  C     -166.452     -72.696    -106.314
  O     -165.972     -71.438    -105.845
  P     -166.551     -70.890    -104.452
  C     -168.466     -69.406    -105.453
  O     -168.099     -70.525    -104.672
  C     -169.974     -69.427    -105.775
  O     -170.345     -68.127    -106.318
  C     -170.400     -70.444    -106.831
  O     -171.815     -70.655    -106.723
  C     -170.097     -69.702    -108.120
  O     -170.785     -70.269    -109.229
  C     -170.488     -68.248    -107.759
  N     -169.657     -67.228    -108.435
  C     -170.252     -66.439    -109.423
  O     -171.426     -66.535    -109.766
  N     -169.430     -65.531    -110.042
  C     -168.119     -65.313    -109.750
  O     -167.405     -64.554    -110.399
  C     -167.580     -66.071    -108.614
  C     -168.356     -66.983    -108.023
  O     -165.832     -69.476    -104.273
  O     -166.293     -71.803    -103.295
  H     -170.541     -69.729    -110.019
  H     -165.132     -69.534    -103.596
  H     -169.827     -65.002    -110.803
  H     -166.558     -65.872    -108.311
  H     -167.972     -67.570    -107.193
  H     -171.537     -68.043    -108.024
  H     -169.032     -69.759    -108.337
  H     -169.875     -71.402    -106.780
  H     -170.538     -69.574    -104.848
  H     -167.880     -69.388    -106.379
  H     -168.226     -68.483    -104.913
  P     -172.322     -72.068    -106.151
  C     -173.354     -72.920    -108.349
  O     -172.317     -73.084    -107.395
  O     -173.577     -72.032    -105.347
  O     -171.067     -72.573    -105.286
  H     -171.357     -73.258    -104.659
  H     -172.984     -73.253    -109.327
  H     -173.665     -71.873    -108.428
  H     -174.208     -73.537    -108.065
  H     -165.982     -72.932    -107.246
  H     -167.512     -72.645    -106.452
  H     -166.222     -73.456    -105.596

 3  4  5  6  7  8  9  10  11  12  13  23  28  29  30  31  32 0
 6-311+G(2d,p)
 ****
 33  34 0
 6-311+G(2d,p)
 ****
 1  2  14  15  16  17  18  19  20  21  22  24  25  26  27 0
 3-21G
 ****
 35  36  37  38  39  40  41  42  43  44  45 0
 3-21G
 ****


