%nproc=1
%NoSave
%Mem=1900MB
#P OB98/GEN NMR

erre ene a

0 1
  C     -607.780    -480.597    -518.890
  O     -607.156    -481.037    -520.107
  P     -605.572    -481.102    -520.300
  C     -605.500    -480.494    -522.805
  O     -605.232    -481.484    -521.818
  C     -605.080    -480.958    -524.204
  O     -603.640    -480.988    -524.328
  C     -605.552    -482.356    -524.586
  O     -606.927    -482.359    -524.923
  C     -604.605    -482.681    -525.746
  O     -605.077    -482.106    -526.969
  C     -603.296    -482.003    -525.288
  N     -602.338    -482.956    -524.747
  C     -601.707    -483.806    -525.663
  O     -602.021    -483.763    -526.857
  N     -600.767    -484.701    -525.207
  C     -600.530    -484.781    -523.929
  N     -599.576    -485.672    -523.536
  C     -601.229    -483.970    -522.922
  C     -602.112    -483.090    -523.399
  O     -604.867    -481.950    -519.286
  O     -605.073    -479.570    -520.187
  H     -604.950    -481.147    -526.894
  H     -604.174    -479.559    -519.808
  H     -601.014    -484.090    -521.865
  H     -602.663    -482.446    -522.728
  H     -602.827    -481.475    -526.125
  H     -604.507    -483.761    -525.912
  H     -605.352    -483.051    -523.747
  H     -605.455    -480.222    -524.942
  H     -599.107    -486.214    -524.255
  H     -604.932    -479.589    -522.545
  H     -599.314    -485.822    -522.568
  H     -606.566    -480.252    -522.797
  P     -607.827    -483.622    -524.527
  C     -609.469    -483.822    -526.503
  O     -609.287    -483.386    -525.164
  O     -607.829    -484.005    -523.085
  O     -607.244    -484.815    -525.432
  H     -607.348    -485.661    -524.965
  H     -610.535    -483.986    -526.677
  H     -608.926    -484.757    -526.695
  H     -609.107    -483.043    -527.189
  H     -608.844    -480.640    -518.999
  H     -607.483    -479.591    -518.681
  H     -607.478    -481.233    -518.084

 3  4  5  6  7  8  9  10  11  12  13  23  27  28  29  30  32 0
 6-311+G(2d,p)
 ****
 34  35 0
 6-311+G(2d,p)
 ****
 1  2  14  15  16  17  18  19  20  21  22  24  25  26 0
 3-21G
 ****
 31  33  36  37  38  39  40  41  42  43  44  45  46 0
 3-21G
 ****


