%nproc=1
%NoSave
%Mem=1900MB
#P OB98/GEN NMR

erre ene a

0 1
  C      -19.988     125.706     206.177
  O      -20.533     125.460     207.458
  P      -20.395     126.551     208.626
  C      -22.865     126.980     209.227
  O      -21.721     127.454     208.524
  C      -24.152     127.386     208.509
  O      -24.224     126.761     207.209
  C      -25.427     126.979     209.234
  O      -25.683     127.854     210.318
  C      -26.445     127.053     208.104
  O      -26.900     128.401     207.902
  C      -25.619     126.569     206.893
  N      -25.909     125.184     206.542
  C      -26.987     124.987     205.672
  O      -27.651     125.945     205.274
  N      -27.318     123.702     205.313
  C      -26.646     122.706     205.800
  N      -27.029     121.457     205.417
  C      -25.522     122.869     206.744
  C      -25.212     124.123     207.070
  O      -19.107     127.303     208.647
  O      -20.652     125.692     209.954
  H      -26.144     128.889     207.519
  H      -19.872     125.125     210.172
  H      -25.000     122.009     207.132
  H      -24.404     124.335     207.759
  H      -25.825     127.194     206.014
  H      -27.330     126.442     208.309
  H      -25.340     125.944     209.583
  H      -24.129     128.475     208.360
  H      -27.822     121.387     204.792
  H      -22.859     127.418     210.230
  H      -26.599     120.614     205.762
  H      -22.804     125.891     209.327
  P      -26.249     127.270     211.696
  C      -25.036     128.583     213.538
  O      -25.086     127.382     212.791
  O      -26.911     125.936     211.602
  O      -27.296     128.387     212.170
  H      -28.109     127.947     212.485
  H      -24.447     128.410     214.441
  H      -26.039     128.910     213.822
  H      -24.552     129.362     212.942
  H      -20.181     124.868     205.540
  H      -18.932     125.854     206.261
  H      -20.439     126.582     205.760

 3  4  5  6  7  8  9  10  11  12  13  23  27  28  29  30  32 0
 6-311+G(2d,p)
 ****
 34  35 0
 6-311+G(2d,p)
 ****
 1  2  14  15  16  17  18  19  20  21  22  24  25  26 0
 3-21G
 ****
 31  33  36  37  38  39  40  41  42  43  44  45  46 0
 3-21G
 ****


