%nproc=1
%NoSave
%Mem=1900MB
#P OB98/GEN NMR

erre ene a

0 1
  C       70.496      86.681     -88.501
  O       70.741      85.924     -89.671
  P       70.245      86.464     -91.094
  C       67.698      85.994     -90.846
  O       68.917      85.649     -91.467
  C       66.617      84.941     -91.124
  O       65.418      85.337     -90.414
  C       66.211      84.812     -92.588
  O       65.543      83.562     -92.766
  C       65.218      85.943     -92.736
  O       64.362      85.768     -93.861
  C       64.508      85.949     -91.358
  N       64.170      87.318     -90.929
  C       63.112      87.940     -91.586
  O       62.424      87.372     -92.433
  N       62.926      89.264     -91.299
  C       63.714      90.010     -90.473
  O       63.728      91.235     -90.465
  C       64.653      89.249     -89.634
  C       64.854      87.959     -89.914
  O       71.346      85.881     -92.098
  O       70.129      87.946     -91.198
  H       64.050      84.834     -93.839
  H       72.027      86.555     -92.281
  H       62.254      89.750     -91.882
  H       65.190      89.779     -88.860
  H       65.580      87.385     -89.346
  H       63.581      85.364     -91.383
  H       65.764      86.884     -92.880
  H       67.041      84.903     -93.295
  H       66.942      83.973     -90.726
  H       67.378      86.978     -91.200
  H       67.835      86.084     -89.762
  P       66.113      82.558     -93.879
  C       63.682      82.304     -94.662
  O       64.882      81.636     -94.329
  O       67.365      81.829     -93.522
  O       66.323      83.512     -95.151
  H       66.933      83.089     -95.782
  H       63.140      81.708     -95.401
  H       63.877      83.296     -95.080
  H       63.065      82.404     -93.765
  H       70.897      86.166     -87.653
  H       69.441      86.811     -88.374
  H       70.965      87.639     -88.591

 3  4  5  6  7  8  9  10  11  12  13  23  28  29  30  31  32 0
 6-311+G(2d,p)
 ****
 33  34 0
 6-311+G(2d,p)
 ****
 1  2  14  15  16  17  18  19  20  21  22  24  25  26  27 0
 3-21G
 ****
 35  36  37  38  39  40  41  42  43  44  45 0
 3-21G
 ****


