%nproc=1
%NoSave
%Mem=1900MB
#P OB98/GEN NMR

erre ene a

0 1
  C      271.923    -204.211     433.838
  O      273.037    -203.342     433.608
  P      272.704    -201.857     433.124
  C      274.088    -199.827     432.264
  O      274.018    -201.232     432.437
  C      275.417    -199.447     431.599
  O      276.524    -199.551     432.531
  C      275.792    -200.345     430.425
  O      275.015    -200.039     429.284
  C      277.272    -200.032     430.291
  O      277.470    -198.790     429.588
  C      277.710    -199.876     431.761
  N      281.683    -203.091     431.347
  C      281.321    -201.988     430.655
  N      280.252    -201.185     430.814
  C      279.500    -201.613     431.845
  C      279.727    -202.719     432.649
  C      280.869    -203.484     432.367
  N      281.215    -204.608     433.072
  N      278.733    -202.842     433.603
  C      277.905    -201.840     433.355
  N      278.334    -201.064     432.311
  O      272.575    -201.040     434.494
  O      271.456    -201.758     432.290
  H      278.380    -198.819     429.203
  H      271.633    -200.820     434.661
  H      281.999    -201.708     429.840
  H      276.986    -201.639     433.896
  H      278.413    -199.042     431.894
  H      277.833    -200.804     429.744
  H      275.652    -201.405     430.699
  H      275.347    -198.406     431.267
  H      274.003    -199.321     433.228
  H      282.012    -205.147     432.755
  H      280.580    -204.960     433.779
  H      273.235    -199.513     431.652
  P      274.337    -201.255     428.489
  C      272.682    -201.353     426.522
  O      273.570    -200.541     427.270
  O      273.135    -201.662     429.469
  O      275.265    -202.358     428.114
  H      272.654    -200.867     429.783
  H      272.210    -200.734     425.749
  H      271.907    -201.765     427.174
  H      273.237    -202.160     426.030
  H      272.278    -205.169     434.156
  H      271.363    -204.320     432.933
  H      271.295    -203.793     434.597

 3  4  5  6  7  8  9  10  11  12  22  25  29  30  31  32 0
 6-311+G(2d,p)
 ****
 33  36  37 0
 6-311+G(2d,p)
 ****
 1  2  13  14  15  16  17  18  19  20  21  23  24  26 0
 3-21G
 ****
 27  28  34  35  38  39  40  41  42  43  44  45  46  47  48 0
 3-21G
 ****


