%nproc=1
%NoSave
%Mem=1900MB
#P OB98/GEN NMR

erre ene a

0 1
  C     -149.014     -12.751     -94.306
  O     -149.269     -11.915     -95.418
  H     -149.715     -12.495     -93.507
  H     -147.994     -12.594     -93.944
  H     -149.156     -13.799     -94.581
  P     -148.295     -12.097     -96.681
  C     -150.089     -13.713     -97.623
  O     -148.710     -13.484     -97.374
  C     -150.267     -14.788     -98.692
  O     -151.667     -15.071     -98.903
  C     -149.682     -14.425    -100.052
  O     -148.293     -14.707    -100.098
  C     -150.495     -15.323    -100.973
  O     -149.981     -16.673    -100.966
  C     -151.887     -15.269    -100.327
  N     -155.128     -14.073    -104.007
  C     -154.353     -15.202    -103.834
  N     -154.432     -16.146    -104.800
  N     -153.561     -15.391    -102.813
  C     -153.538     -14.343    -101.956
  C     -154.255     -13.170    -102.017
  C     -155.170     -13.000    -103.126
  O     -155.942     -12.061    -103.292
  N     -153.972     -12.358    -100.948
  C     -153.062     -13.024    -100.263
  N     -152.761     -14.232    -100.838
  O     -146.877     -12.429     -96.013
  O     -148.199     -10.921     -97.591
  H     -149.951     -16.998    -100.050
  H     -146.176     -11.995     -96.535
  H     -155.742     -13.997    -104.798
  H     -152.601     -12.682     -99.347
  H     -152.426     -16.217    -100.441
  H     -150.451     -14.983    -102.008
  H     -154.782     -15.937    -105.723
  H     -149.882     -13.376    -100.300
  H     -153.808     -16.937    -104.707
  H     -149.809     -15.709     -98.310
  H     -150.545     -12.779     -97.967
  H     -150.576     -14.029     -96.696
  P     -147.622     -14.973    -101.528
  C     -147.062     -12.470    -101.932
  O     -147.748     -13.626    -102.392
  O     -148.662     -15.967    -102.230
  O     -146.260     -15.576    -101.475
  H     -148.301     -16.873    -102.240
  H     -147.239     -11.658    -102.606
  H     -146.012     -12.673    -101.886
  H     -147.418     -12.208    -100.957

 6  7  8  9  10  11  12  13  14  15  26  29  33  34 0
 6-311+G(2d,p)
 ****
 36  38  39  40  41 0
 6-311+G(2d,p)
 ****
 1  2  3  4  5  16  17  18  19  20  21  22  23  24  25 0
 3-21G
 ****
 27  28  30  31  32  35  37  42  43  44  45  46  47 0
 3-21G
 ****
 48  49 0
 3-21G
 ****


