%nproc=1
%NoSave
%Mem=1900MB
#P OB98/GEN NMR

erre ene a

0 1
  C       -2.987     -58.169     -93.642
  O       -3.159     -56.876     -94.176
  H       -3.894     -58.441     -93.093
  H       -2.144     -58.193     -92.947
  H       -2.833     -58.896     -94.444
  P       -1.906     -56.147     -94.871
  C       -2.983     -54.498     -96.514
  O       -2.431     -54.661     -95.213
  C       -4.378     -55.118     -96.613
  O       -5.227     -54.575     -95.567
  C       -5.077     -54.862     -97.954
  O       -5.645     -56.082     -98.435
  C       -6.175     -53.868     -97.604
  O       -7.254     -53.909     -98.533
  C       -6.504     -54.287     -96.166
  N       -7.231     -53.262     -95.426
  C       -8.562     -53.051     -95.795
  O       -9.056     -53.687     -96.727
  N       -9.291     -52.099     -95.129
  C       -8.727     -51.381     -94.211
  N       -9.502     -50.447     -93.596
  C       -7.310     -51.537     -93.821
  C       -6.630     -52.490     -94.458
  O       -1.316     -56.886     -96.024
  O       -0.873     -55.897     -93.674
  H       -7.894     -53.202     -98.297
  H        0.031     -55.750     -94.047
  H       -6.882     -50.907     -93.057
  H       -5.587     -52.682     -94.230
  H       -7.102     -55.209     -96.158
  H       -5.762     -52.851     -97.608
  H       -4.412     -54.466     -98.718
  H       -4.292     -56.192     -96.408
  H      -10.467     -50.373     -93.891
  H       -2.308     -54.962     -97.242
  H       -9.167     -49.829     -92.872
  H       -3.055     -53.425     -96.724
  P       -4.837     -56.824     -99.606
  C       -5.956     -59.157     -99.482
  O       -5.793     -57.958    -100.224
  O       -3.722     -57.652     -98.810
  O       -4.231     -55.889    -100.602
  H       -2.867     -57.185     -98.846
  H       -6.614     -59.816    -100.009
  H       -6.373     -58.929     -98.523
  H       -5.005     -59.630     -99.354

 6  7  8  9  10  11  12  13  14  15  16  26  30  31  32  33  35 0
 6-311+G(2d,p)
 ****
 37  38 0
 6-311+G(2d,p)
 ****
 1  2  3  4  5  17  18  19  20  21  22  23  24  25 0
 3-21G
 ****
 27  28  29  34  36  39  40  41  42  43  44  45  46 0
 3-21G
 ****


