%nproc=1
%NoSave
%Mem=1900MB
#P OB98/GEN NMR

erre ene a

0 1
  C     1031.743     -44.425     -83.713
  O     1031.397     -43.378     -82.809
  P     1030.012     -42.581     -82.837
  C     1031.129     -40.404     -83.805
  O     1030.129     -41.424     -83.916
  C     1031.125     -39.450     -84.993
  O     1029.878     -38.726     -85.052
  C     1032.217     -38.356     -84.801
  O     1033.563     -38.663     -85.166
  C     1031.654     -37.102     -85.440
  O     1032.073     -36.944     -86.795
  C     1030.140     -37.316     -85.363
  N     1029.038     -32.531     -83.990
  C     1029.841     -32.970     -85.028
  N     1030.471     -32.023     -85.767
  N     1030.015     -34.244     -85.315
  C     1029.407     -35.088     -84.434
  C     1028.611     -34.762     -83.356
  C     1028.375     -33.337     -83.078
  O     1027.660     -32.900     -82.196
  N     1028.181     -35.901     -82.683
  C     1028.737     -36.878     -83.358
  N     1029.495     -36.447     -84.417
  O     1029.465     -42.204     -81.487
  O     1028.982     -43.639     -83.500
  H     1031.906     -37.813     -87.258
  H     1028.103     -43.459     -83.080
  H     1028.924     -31.540     -83.832
  H     1028.633     -37.935     -83.105
  H     1029.670     -37.144     -86.338
  H     1031.980     -36.199     -84.887
  H     1030.442     -31.045     -85.537
  H     1032.284     -38.149     -83.724
  H     1031.199     -32.342     -86.376
  H     1031.234     -39.968     -85.942
  H     1032.091     -40.934     -83.731
  H     1030.990     -39.852     -82.865
  P     1034.857     -38.583     -84.212
  C     1035.538     -36.153     -84.741
  O     1035.051     -37.072     -83.742
  O     1036.089     -38.832     -85.205
  O     1034.860     -39.588     -83.080
  H     1036.888     -39.081     -84.685
  H     1035.933     -35.251     -84.254
  H     1034.720     -35.875     -85.392
  H     1036.342     -36.652     -85.320
  H     1032.722     -44.789     -83.479
  H     1031.732     -44.049     -84.715
  H     1031.035     -45.222     -83.623

 3  4  5  6  7  8  9  10  11  12  23  26  30  31 0
 6-311+G(2d,p)
 ****
 33  35  36  37  38 0
 6-311+G(2d,p)
 ****
 1  2  13  14  15  16  17  18  19  20  21  22  24  25 0
 3-21G
 ****
 27  28  29  32  34  39  40  41  42  43  44  45  46  47  48  49 0
 3-21G
 ****


