%nproc=1
%NoSave
%Mem=1900MB
#P OB98/GEN NMR

erre ene a

0 1
  C      955.762     199.270     179.811
  O      954.514     199.048     179.152
  P      954.561     198.265     177.753
  C      954.763     200.363     176.248
  O      955.372     199.164     176.699
  C      955.717     201.177     175.353
  O      955.063     202.382     174.863
  C      956.988     201.631     176.080
  O      958.061     201.641     175.119
  C      956.683     203.065     176.475
  O      957.862     203.804     176.753
  C      955.880     203.516     175.246
  N      955.870     208.174     177.332
  C      956.831     207.239     177.207
  N      956.754     206.010     176.655
  C      955.517     205.796     176.169
  C      954.427     206.642     176.228
  C      954.632     207.887     176.851
  N      953.642     208.823     177.000
  N      953.318     206.053     175.650
  C      953.739     204.863     175.257
  N      955.061     204.680     175.525
  O      953.048     198.354     177.225
  O      955.011     196.846     177.861
  H      957.617     204.752     176.795
  H      952.613     197.489     177.312
  H      957.810     207.526     177.612
  H      953.110     204.110     174.790
  H      956.541     203.772     174.395
  H      956.053     203.069     177.370
  H      957.276     201.013     176.938
  H      955.984     200.579     174.487
  H      954.466     200.986     177.095
  H      953.861     209.684     177.479
  H      952.703     208.614     176.687
  H      953.835     200.117     175.708
  P      958.686     200.220     174.727
  C      960.754     200.475     176.275
  O      959.569     199.761     175.982
  O      959.776     200.589     173.616
  O      957.689     199.227     174.230
  H      959.922     199.828     173.029
  H      960.833     200.589     177.364
  H      960.766     201.464     175.817
  H      961.616     199.910     175.914
  H      955.593     199.798     180.726
  H      956.402     199.849     179.178
  H      956.226     198.329     180.022

 3  4  5  6  7  8  9  10  11  12  22  25  29  30  31  32 0
 6-311+G(2d,p)
 ****
 33  36  37 0
 6-311+G(2d,p)
 ****
 1  2  13  14  15  16  17  18  19  20  21  23  24  26 0
 3-21G
 ****
 27  28  34  35  38  39  40  41  42  43  44  45  46  47  48 0
 3-21G
 ****


