%nproc=1
%NoSave
%Mem=1900MB
#P OB98/GEN NMR

erre ene a

0 1
  C      500.315     283.476      29.591
  O      499.384     283.287      28.541
  H      501.262     283.829      29.177
  H      499.926     284.237      30.275
  H      500.471     282.547      30.145
  P      499.599     282.014      27.589
  C      497.330     280.803      27.947
  O      498.136     281.581      27.076
  C      495.993     280.463      27.288
  O      495.120     281.621      27.395
  C      496.105     280.093      25.799
  O      495.177     279.040      25.526
  C      495.634     281.357      25.091
  O      495.108     281.098      23.794
  C      494.598     281.887      26.082
  N      491.720     285.237      23.550
  C      491.574     283.915      23.784
  N      492.364     283.100      24.519
  C      493.360     283.799      25.094
  C      493.632     285.154      24.956
  C      492.767     285.880      24.126
  N      492.949     287.216      23.827
  N      494.775     285.483      25.663
  C      495.194     284.347      26.193
  N      494.369     283.303      25.875
  O      499.987     280.862      28.635
  O      500.629     282.175      26.524
  H      494.862     281.944      23.378
  H      500.950     280.871      28.786
  H      490.717     283.446      23.310
  H      496.092     284.223      26.781
  H      493.625     281.380      25.987
  H      496.472     282.051      24.991
  H      497.111     279.793      25.487
  H      495.518     279.653      27.851
  H      497.138     281.375      28.865
  H      492.345     287.624      23.135
  H      493.782     287.677      24.154
  H      497.868     279.884      28.214
  P      495.333     278.261      24.129
  C      493.062     277.001      24.364
  O      493.873     277.886      23.590
  O      495.942     276.850      24.565
  O      496.209     278.966      23.141
  H      496.535     276.510      23.873
  H      492.124     276.853      23.870
  H      492.893     277.426      25.331
  H      493.561     276.061      24.470

 6  7  8  9  10  11  12  13  14  15  25  28  32  33  34  35 0
 6-311+G(2d,p)
 ****
 36  39  40 0
 6-311+G(2d,p)
 ****
 1  2  3  4  5  16  17  18  19  20  21  22  23  24 0
 3-21G
 ****
 26  27  29  30  31  37  38  41  42  43  44  45  46  47 0
 3-21G
 ****
 48 0
 3-21G
 ****


