%nproc=1
%NoSave
%Mem=1900MB
#P OB98/GEN NMR

erre ene a

0 1
  C       31.877      34.193    -155.049
  O       30.603      33.901    -154.490
  P       29.386      34.893    -154.814
  C       28.874      33.669    -157.042
  O       29.199      34.900    -156.410
  C       27.733      33.847    -158.043
  O       28.133      34.818    -159.048
  C       27.331      32.568    -158.784
  O       25.922      32.645    -159.032
  C       28.073      32.688    -160.102
  O       27.497      31.876    -161.121
  C       27.968      34.192    -160.339
  N       28.968      35.383    -165.209
  C       27.842      34.952    -164.603
  N       27.652      34.657    -163.300
  C       28.785      34.843    -162.602
  C       30.018      35.245    -163.090
  C       30.090      35.526    -164.465
  N       31.233      35.974    -165.083
  N       30.949      35.294    -162.072
  C       30.291      34.929    -160.991
  N       28.976      34.672    -161.258
  O       30.015      36.332    -154.506
  O       28.146      34.660    -154.022
  H       27.577      30.942    -160.850
  H       29.591      36.718    -153.715
  H       26.974      34.837    -165.248
  H       30.717      34.836    -160.003
  H       26.985      34.482    -160.732
  H       29.115      32.376    -159.970
  H       27.572      31.645    -158.246
  H       26.871      34.270    -157.512
  H       28.558      32.955    -156.276
  H       31.170      36.285    -166.039
  H       32.017      36.264    -164.509
  H       29.760      33.271    -157.545
  P       25.116      31.261    -159.084
  C       24.528      31.297    -156.558
  O       25.189      30.630    -157.615
  O       26.068      30.311    -159.955
  O       23.752      31.371    -159.681
  H       25.535      29.635    -160.412
  H       24.160      30.554    -155.846
  H       23.682      31.892    -156.918
  H       25.237      31.956    -156.051
  H       32.580      33.446    -154.744
  H       32.205      35.152    -154.707
  H       31.805      34.201    -156.117

 3  4  5  6  7  8  9  10  11  12  22  25  29  30  31  32 0
 6-311+G(2d,p)
 ****
 33  36  37 0
 6-311+G(2d,p)
 ****
 1  2  13  14  15  16  17  18  19  20  21  23  24  26 0
 3-21G
 ****
 27  28  34  35  38  39  40  41  42  43  44  45  46  47  48 0
 3-21G
 ****


