%nproc=1
%NoSave
%Mem=1900MB
#P OB98/GEN NMR

erre ene a

0 1
  C     1046.976    -894.123    -330.961
  O     1048.035    -893.733    -331.812
  H     1047.329    -894.913    -330.297
  H     1046.130    -894.513    -331.544
  H     1046.639    -893.273    -330.361
  P     1047.693    -892.653    -332.947
  C     1048.367    -893.373    -335.360
  O     1048.787    -892.833    -334.107
  C     1049.595    -893.743    -336.191
  O     1050.426    -892.563    -336.393
  C     1050.505    -894.773    -335.529
  O     1050.019    -896.103    -335.667
  C     1051.797    -894.553    -336.304
  O     1051.802    -895.293    -337.548
  C     1051.784    -893.043    -336.559
  N     1052.724    -892.343    -335.680
  C     1054.048    -892.383    -336.060
  O     1054.453    -892.993    -337.075
  N     1054.949    -891.763    -335.229
  C     1054.628    -891.153    -334.056
  O     1055.488    -890.653    -333.321
  C     1053.211    -891.143    -333.676
  C     1052.327    -891.723    -334.507
  O     1048.082    -891.263    -332.258
  O     1046.278    -892.653    -333.419
  H     1047.289    -890.773    -332.006
  H     1052.607    -894.993    -338.015
  H     1055.922    -891.793    -335.490
  H     1052.927    -890.673    -332.743
  H     1051.279    -891.743    -334.245
  H     1052.058    -892.823    -337.606
  H     1052.661    -894.883    -335.730
  H     1050.663    -894.503    -334.476
  H     1049.267    -894.093    -337.165
  H     1047.783    -892.613    -335.897
  H     1047.728    -894.243    -335.180
  P     1049.660    -896.903    -334.312
  C     1050.943    -898.943    -335.380
  O     1049.807    -898.463    -334.669
  O     1048.077    -896.653    -334.232
  O     1050.446    -896.433    -333.123
  H     1047.688    -896.503    -335.113
  H     1050.856    -900.000    -335.519
  H     1051.830    -898.728    -334.822
  H     1050.997    -898.461    -336.334

 6  7  8  9  10  11  12  13  14  15  16  27  31  32  33  34  35 0
 6-311+G(2d,p)
 ****
 36  37 0
 6-311+G(2d,p)
 ****
 1  2  3  4  5  17  18  19  20  21  22  23  24  25 0
 3-21G
 ****
 26  28  29  30  38  39  40  41  42  43  44  45 0
 3-21G
 ****


