%nproc=1
%NoSave
%Mem=1900MB
#P OB98/GEN NMR

erre ene a

0 1
  C     -471.979    -491.319    -311.261
  O     -470.850    -490.603    -310.797
  H     -472.288    -492.021    -310.483
  H     -471.722    -491.882    -312.158
  H     -472.804    -490.633    -311.475
  P     -470.235    -489.493    -311.783
  C     -468.606    -490.968    -313.183
  O     -469.852    -490.292    -313.129
  C     -468.645    -492.100    -314.222
  O     -468.910    -491.527    -315.526
  C     -467.343    -492.888    -314.314
  O     -467.636    -494.292    -314.407
  C     -466.682    -492.398    -315.581
  O     -465.804    -493.359    -316.162
  C     -467.905    -492.002    -316.442
  N     -467.570    -491.000    -317.440
  C     -467.121    -491.466    -318.682
  O     -467.008    -492.667    -318.890
  N     -466.759    -490.550    -319.645
  C     -466.784    -489.280    -319.369
  N     -466.392    -488.429    -320.345
  C     -467.199    -488.746    -318.049
  C     -467.584    -489.653    -317.152
  O     -468.810    -489.178    -311.120
  O     -471.086    -488.280    -311.991
  H     -465.574    -493.039    -317.078
  H     -468.411    -488.358    -311.492
  H     -467.182    -487.680    -317.860
  H     -467.908    -489.342    -316.158
  H     -468.305    -492.895    -316.951
  H     -466.091    -491.494    -315.361
  H     -466.681    -492.736    -313.456
  H     -469.498    -492.750    -313.987
  H     -466.103    -488.829    -321.225
  H     -468.394    -491.392    -312.188
  H     -466.332    -487.422    -320.238
  H     -467.819    -490.262    -313.438
  P     -467.489    -495.147    -313.054
  C     -465.280    -496.438    -313.471
  O     -465.914    -495.368    -312.802
  O     -468.027    -496.588    -313.454
  O     -468.233    -494.557    -311.903
  H     -468.938    -496.710    -313.159
  H     -464.243    -496.459    -313.207
  H     -465.377    -496.305    -314.528
  H     -465.740    -497.361    -313.184

 6  7  8  9  10  11  12  13  14  15  16  26  30  31  32  33  35 0
 6-311+G(2d,p)
 ****
 37  38 0
 6-311+G(2d,p)
 ****
 1  2  3  4  5  17  18  19  20  21  22  23  24  25 0
 3-21G
 ****
 27  28  29  34  36  39  40  41  42  43  44  45  46 0
 3-21G
 ****


