%nproc=1
%NoSave
%Mem=1900MB
#P OB98/GEN NMR

erre ene a

0 1
  C      323.924    1017.231    -896.830
  O      323.703    1015.898    -896.340
  P      324.499    1015.433    -895.020
  C      322.500    1014.839    -893.450
  O      323.584    1014.383    -894.220
  C      321.378    1013.794    -893.370
  O      320.639    1013.700    -894.640
  C      321.886    1012.354    -893.080
  O      322.112    1012.159    -891.700
  C      320.714    1011.545    -893.590
  O      319.681    1011.508    -892.560
  C      320.234    1012.318    -894.840
  N      319.362    1009.441    -898.900
  C      318.554    1009.780    -897.880
  N      317.274    1009.280    -897.880
  N      318.898    1010.522    -896.830
  C      320.167    1010.975    -896.920
  C      321.094    1010.742    -897.950
  C      320.688    1009.876    -899.060
  O      321.387    1009.545    -900.000
  N      322.304    1011.382    -897.710
  C      322.090    1012.023    -896.560
  N      320.828    1011.792    -896.060
  O      324.386    1016.741    -894.100
  O      325.943    1015.047    -895.250
  H      318.897    1011.070    -892.960
  H      325.145    1016.789    -893.480
  H      319.058    1008.859    -899.660
  H      322.834    1012.642    -896.080
  H      319.150    1012.288    -894.920
  H      321.004    1010.485    -893.760
  H      316.940    1008.698    -898.670
  H      322.778    1012.132    -893.680
  H      316.655    1009.509    -897.150
  H      320.670    1014.093    -892.600
  H      322.088    1015.784    -893.870
  H      322.868    1015.095    -892.440
  P      322.944    1010.873    -891.250
  C      324.499    1012.220    -889.650
  O      323.508    1011.205    -889.770
  O      324.241    1010.933    -892.180
  O      322.201    1009.562    -891.370
  H      324.537    1010.038    -892.390
  H      324.655    1012.414    -888.560
  H      324.193    1013.142    -890.140
  H      325.461    1011.887    -890.080
  H      323.330    1017.392    -897.706
  H      324.959    1017.355    -897.073
  H      323.647    1017.938    -896.076

 3  4  5  6  7  8  9  10  11  12  23  26  30  31 0
 6-311+G(2d,p)
 ****
 33  35  36  37  38 0
 6-311+G(2d,p)
 ****
 1  2  13  14  15  16  17  18  19  20  21  22  24  25 0
 3-21G
 ****
 27  28  29  32  34  39  40  41  42  43  44  45  46  47  48  49 0
 3-21G
 ****


