%nproc=1
%NoSave
%Mem=1900MB
#P OB98/GEN NMR

erre ene a

0 1
  C      -13.116     -82.569    -185.104
  O      -14.424     -82.996    -184.778
  H      -12.461     -82.760    -184.251
  H      -13.113     -81.496    -185.318
  H      -12.743     -83.123    -185.970
  P      -15.553     -82.740    -185.891
  C      -16.496     -80.686    -184.622
  O      -15.911     -81.176    -185.819
  C      -16.517     -79.159    -184.625
  O      -15.177     -78.629    -184.704
  C      -17.303     -78.544    -185.779
  O      -18.688     -78.494    -185.479
  C      -16.670     -77.162    -185.863
  O      -17.212     -76.282    -184.853
  C      -15.192     -77.468    -185.580
  N      -10.625     -76.850    -187.645
  C      -11.132     -76.387    -186.446
  N      -10.308     -75.623    -185.694
  N      -12.342     -76.639    -186.023
  C      -13.073     -77.367    -186.901
  C      -12.688     -77.880    -188.117
  C      -11.328     -77.639    -188.549
  O      -10.795     -78.088    -189.560
  N      -13.710     -78.581    -188.708
  C      -14.717     -78.461    -187.863
  N      -14.383     -77.729    -186.755
  O      -16.855     -83.442    -185.271
  O      -15.249     -83.275    -187.249
  H      -16.762     -75.422    -184.906
  H      -17.356     -83.864    -185.993
  H       -9.676     -76.649    -187.905
  H      -15.701     -78.891    -188.006
  H      -14.703     -76.649    -185.040
  H      -16.869     -76.686    -186.824
  H       -9.500     -75.162    -186.086
  H      -17.117     -79.085    -186.714
  H      -10.706     -75.225    -184.852
  H      -16.934     -78.835    -183.660
  H      -15.905     -81.038    -183.769
  H      -17.517     -81.069    -184.534
  P      -19.729     -78.619    -186.691
  C      -20.062     -76.045    -186.596
  O      -19.827     -77.186    -187.411
  O      -21.137     -78.760    -185.940
  O      -19.491     -79.777    -187.601
  H      -21.448     -79.685    -185.989
  H      -20.102     -75.170    -187.210
  H      -19.269     -75.945    -185.885
  H      -20.992     -76.161    -186.079

 6  7  8  9  10  11  12  13  14  15  26  29  33  34 0
 6-311+G(2d,p)
 ****
 36  38  39  40  41 0
 6-311+G(2d,p)
 ****
 1  2  3  4  5  16  17  18  19  20  21  22  23  24  25 0
 3-21G
 ****
 27  28  30  31  32  35  37  42  43  44  45  46  47 0
 3-21G
 ****
 48  49 0
 3-21G
 ****


