%nproc=1
%NoSave
%Mem=1900MB
#P OB98/GEN NMR

erre ene a

0 1
  C     -283.404     323.860     -23.672
  O     -282.110     323.356     -23.404
  H     -284.125     323.044     -23.585
  H     -283.444     324.257     -24.689
  H     -283.668     324.643     -22.954
  P     -280.923     324.421     -23.245
  C     -279.925     323.618     -25.508
  O     -279.698     323.875     -24.131
  C     -278.591     323.536     -26.250
  O     -277.949     324.842     -26.198
  C     -277.610     322.518     -25.656
  O     -276.875     321.918     -26.730
  C     -276.671     323.384     -24.837
  O     -275.397     322.799     -24.607
  C     -276.610     324.646     -25.706
  N     -276.144     325.816     -24.966
  C     -274.801     325.856     -24.614
  O     -273.961     325.022     -24.951
  N     -274.425     326.920     -23.834
  C     -275.244     327.903     -23.364
  O     -274.854     328.819     -22.651
  C     -276.659     327.802     -23.764
  C     -277.035     326.777     -24.532
  O     -280.428     324.184     -21.743
  O     -281.296     325.841     -23.509
  H     -280.925     324.755     -21.125
  H     -275.001     322.606     -25.480
  H     -273.454     326.964     -23.568
  H     -277.340     328.557     -23.402
  H     -278.074     326.661     -24.827
  H     -275.963     324.477     -26.575
  H     -277.123     323.604     -23.860
  H     -278.083     321.738     -25.051
  H     -278.789     323.315     -27.308
  H     -280.522     324.428     -25.938
  H     -280.481     322.680     -25.614
  P     -277.650     320.853     -27.647
  C     -277.038     318.792     -26.149
  O     -276.912     319.452     -27.401
  O     -277.178     321.303     -29.108
  O     -279.125     320.860     -27.428
  H     -276.262     321.627     -29.125
  H     -276.481     317.878     -26.170
  H     -278.069     318.577     -25.961
  H     -276.658     319.423     -25.373

 6  7  8  9  10  11  12  13  14  15  16  27  31  32  33  34  35 0
 6-311+G(2d,p)
 ****
 36  37 0
 6-311+G(2d,p)
 ****
 1  2  3  4  5  17  18  19  20  21  22  23  24  25 0
 3-21G
 ****
 26  28  29  30  38  39  40  41  42  43  44  45 0
 3-21G
 ****


