%nproc=1
%NoSave
%Mem=1900MB
#P OB98/GEN NMR

erre ene a

0 1
  C       32.019      53.119      54.290
  O       31.228      52.481      53.307
  H       31.423      53.904      54.764
  H       32.896      53.576      53.824
  H       32.333      52.401      55.052
  P       31.852      51.184      52.605
  C       31.838      51.869      50.070
  O       31.248      51.110      51.118
  C       31.150      51.551      48.745
  O       31.191      50.138      48.461
  C       29.667      51.882      48.726
  O       29.417      53.269      48.699
  C       29.238      51.151      47.463
  O       29.580      51.901      46.289
  C       30.089      49.859      47.554
  N       29.311      48.708      47.987
  C       28.420      48.185      47.041
  O       28.337      48.689      45.921
  N       27.627      47.124      47.402
  C       27.731      46.613      48.588
  N       26.911      45.570      48.885
  C       28.675      47.117      49.605
  C       29.421      48.158      49.243
  O       31.100      49.987      53.352
  O       33.343      51.096      52.639
  H       29.276      51.372      45.526
  H       30.132      50.064      53.336
  H       28.733      46.653      50.579
  H       30.138      48.589      49.929
  H       30.535      49.623      46.579
  H       28.160      50.985      47.430
  H       29.162      51.407      49.577
  H       31.690      52.077      47.947
  H       26.262      45.265      48.170
  H       32.913      51.674      50.004
  H       26.879      45.115      49.785
  H       31.710      52.928      50.317
  P       28.585      53.971      49.878
  C       26.243      54.150      48.824
  O       27.441      54.842      49.163
  O       29.406      54.721      50.872
  O       27.746      52.761      50.507
  H       27.143      52.317      49.884
  H       25.560      54.828      48.357
  H       25.798      53.751      49.712
  H       26.471      53.352      48.149

 6  7  8  9  10  11  12  13  14  15  16  26  30  31  32  33  35 0
 6-311+G(2d,p)
 ****
 37  38 0
 6-311+G(2d,p)
 ****
 1  2  3  4  5  17  18  19  20  21  22  23  24  25 0
 3-21G
 ****
 27  28  29  34  36  39  40  41  42  43  44  45  46 0
 3-21G
 ****


