%nproc=1
%NoSave
%Mem=1900MB
#P OB98/GEN NMR

erre ene a

0 1
  C     1372.699     843.404     615.714
  O     1372.431     842.586     616.871
  P     1370.940     841.951     616.959
  C     1372.045     839.916     615.714
  O     1370.922     840.780     615.855
  C     1371.594     838.548     615.234
  O     1370.633     837.975     616.155
  C     1370.883     838.567     613.878
  O     1371.834     838.744     612.818
  C     1370.186     837.200     613.910
  O     1371.120     836.158     613.550
  C     1369.801     837.068     615.396
  N     1368.382     837.340     615.612
  C     1367.502     836.301     615.362
  O     1367.880     835.181     614.954
  N     1366.195     836.545     615.586
  C     1365.637     837.739     616.008
  O     1364.463     837.880     616.207
  C     1366.607     838.813     616.225
  C     1367.918     838.576     616.023
  O     1370.050     843.104     616.332
  O     1370.571     841.542     618.348
  H     1370.501     843.595     615.630
  H     1370.593     835.328     613.488
  H     1365.539     835.751     615.440
  H     1366.230     839.781     616.508
  H     1368.634     839.384     616.138
  H     1370.021     836.080     615.763
  H     1369.363     837.149     613.208
  H     1370.149     839.356     613.873
  H     1372.464     837.883     615.206
  H     1372.574     839.827     616.671
  H     1372.755     840.389     615.012
  P     1371.906     840.194     612.164
  C     1374.414     840.033     612.872
  O     1373.293     840.840     612.667
  O     1370.794     840.998     613.001
  O     1371.719     840.203     610.665
  H     1370.828     840.789     613.953
  H     1375.322     840.659     612.884
  H     1374.529     839.278     612.080
  H     1374.353     839.515     613.854
  H     1373.704     843.768     615.759
  H     1372.021     844.232     615.697
  H     1372.571     842.820     614.827

 3  4  5  6  7  8  9  10  11  12  13  24  28  29  30  31  32 0
 6-311+G(2d,p)
 ****
 33  34 0
 6-311+G(2d,p)
 ****
 1  2  14  15  16  17  18  19  20  21  22  23  25  26  27 0
 3-21G
 ****
 35  36  37  38  39  40  41  42  43  44  45 0
 3-21G
 ****


