%nproc=1
%NoSave
%Mem=1900MB
#P OB98/GEN NMR

erre ene a

0 1
  C       59.831    -138.521    -133.542
  O       59.111    -138.095    -132.398
  P       59.877    -137.159    -131.341
  C       61.964    -137.494    -129.822
  O       60.921    -138.105    -130.573
  C       62.166    -138.233    -128.503
  O       60.964    -138.196    -127.705
  C       62.493    -139.714    -128.662
  O       63.863    -139.935    -128.954
  C       62.156    -140.236    -127.274
  O       63.239    -139.955    -126.367
  C       60.920    -139.404    -126.908
  N       57.655    -142.810    -125.079
  C       58.722    -142.187    -124.461
  N       58.990    -142.573    -123.195
  N       59.456    -141.268    -125.030
  C       59.077    -140.990    -126.302
  C       58.037    -141.538    -127.020
  C       57.240    -142.561    -126.382
  O       56.316    -143.186    -126.895
  N       57.958    -140.995    -128.274
  C       58.942    -140.121    -128.319
  N       59.677    -140.112    -127.162
  O       58.762    -136.868    -130.230
  O       60.440    -135.903    -131.913
  H       62.993    -140.349    -125.507
  H       59.023    -136.100    -129.687
  H       57.123    -143.517    -124.598
  H       59.170    -139.488    -129.169
  H       60.929    -139.101    -125.857
  H       61.999    -141.318    -127.256
  H       58.501    -143.321    -122.725
  H       61.836    -140.190    -129.400
  H       59.804    -142.180    -122.740
  H       62.959    -137.720    -127.945
  H       61.701    -136.453    -129.623
  H       62.888    -137.508    -130.410
  P       64.192    -141.030    -130.084
  C       63.998    -143.620    -130.125
  O       64.092    -142.447    -129.341
  O       65.761    -140.831    -130.329
  O       63.398    -140.883    -131.338
  H       66.002    -141.116    -131.230
  H       64.206    -144.484    -129.488
  H       64.723    -143.607    -130.943
  H       62.986    -143.718    -130.529
  H       59.201    -139.133    -134.153
  H       60.687    -139.085    -133.235
  H       60.149    -137.666    -134.102

 3  4  5  6  7  8  9  10  11  12  23  26  30  31 0
 6-311+G(2d,p)
 ****
 33  35  36  37  38 0
 6-311+G(2d,p)
 ****
 1  2  13  14  15  16  17  18  19  20  21  22  24  25 0
 3-21G
 ****
 27  28  29  32  34  39  40  41  42  43  44  45  46  47  48  49 0
 3-21G
 ****


