%nproc=1
%NoSave
%Mem=1900MB
#P OB98/GEN NMR

erre ene a

0 1
  C     -277.572     307.200    -528.883
  O     -278.371     308.365    -528.766
  P     -279.975     308.266    -528.734
  C     -281.849     308.274    -530.473
  O     -280.471     308.025    -530.241
  C     -282.070     308.954    -531.828
  O     -281.738     310.370    -531.727
  C     -281.221     308.364    -532.976
  O     -282.019     308.462    -534.160
  C     -280.048     309.343    -533.060
  O     -279.386     309.310    -534.319
  C     -280.771     310.659    -532.764
  N     -277.375     314.181    -534.257
  C     -278.065     313.252    -534.946
  N     -278.939     312.313    -534.464
  C     -279.061     312.427    -533.149
  C     -278.398     313.303    -532.298
  C     -277.521     314.237    -532.902
  N     -276.834     315.206    -532.214
  N     -278.748     313.069    -530.968
  C     -279.598     312.077    -531.038
  N     -279.881     311.693    -532.313
  O     -280.664     309.390    -528.010
  O     -280.260     306.857    -528.013
  H     -278.532     309.784    -534.232
  H     -280.574     306.993    -527.105
  H     -277.901     313.243    -536.024
  H     -280.058     311.571    -530.170
  H     -281.335     311.031    -533.635
  H     -279.318     309.111    -532.279
  H     -280.899     307.339    -532.811
  H     -283.138     308.889    -532.075
  H     -282.200     308.952    -529.671
  H     -276.347     315.885    -532.757
  H     -277.128     315.442    -531.268
  H     -282.422     307.335    -530.409
  P     -281.863     307.352    -535.329
  C     -280.583     307.523    -537.535
  O     -280.541     307.724    -536.132
  O     -283.081     307.134    -536.159
  O     -281.440     306.029    -534.526
  H     -281.584     305.246    -535.084
  H     -280.419     306.473    -537.749
  H     -279.814     308.126    -538.025
  H     -281.563     307.815    -537.956
  H     -276.538     307.475    -528.886
  H     -277.809     306.695    -529.796
  H     -277.766     306.550    -528.055

 3  4  5  6  7  8  9  10  11  12  22  25  29  30  31  32 0
 6-311+G(2d,p)
 ****
 33  36  37 0
 6-311+G(2d,p)
 ****
 1  2  13  14  15  16  17  18  19  20  21  23  24  26 0
 3-21G
 ****
 27  28  34  35  38  39  40  41  42  43  44  45  46  47  48 0
 3-21G
 ****


