%nproc=1
%NoSave
%Mem=1900MB
#P OB98/GEN NMR

erre ene a

0 1
  C      628.807     -22.030     463.781
  O      629.134     -21.202     464.878
  P      630.622     -20.612     465.037
  C      629.532     -18.813     466.545
  O      630.588     -19.766     466.403
  C      629.926     -17.705     467.524
  O      631.162     -17.089     467.119
  C      628.909     -16.578     467.620
  O      627.794     -16.978     468.410
  C      629.758     -15.472     468.224
  O      629.856     -15.607     469.660
  C      631.134     -15.703     467.563
  N      631.385     -14.782     466.469
  C      631.277     -13.415     466.789
  O      630.959     -13.074     467.930
  N      631.484     -12.483     465.799
  C      631.751     -12.882     464.591
  N      631.940     -11.917     463.656
  C      631.836     -14.308     464.206
  C      631.640     -15.187     465.180
  O      631.149     -19.877     463.843
  O      631.484     -21.905     465.434
  H      628.941     -15.623     469.990
  H      631.635     -22.489     464.659
  H      632.053     -14.585     463.186
  H      631.681     -16.254     464.982
  H      631.934     -15.604     468.297
  H      629.338     -14.471     468.028
  H      628.581     -16.280     466.619
  H      630.080     -18.165     468.513
  H      631.841     -10.948     463.958
  H      628.652     -19.331     466.922
  H      632.119     -12.114     462.678
  H      629.290     -18.397     465.567
  P      626.469     -16.102     468.415
  C      625.561     -17.905     469.997
  O      625.601     -16.525     469.700
  O      625.715     -16.057     467.127
  O      626.980     -14.632     468.813
  H      626.552     -13.984     468.246
  H      625.241     -18.040     471.035
  H      626.543     -18.369     469.867
  H      624.835     -18.400     469.337
  H      627.780     -22.321     463.848
  H      629.427     -22.902     463.795
  H      628.967     -21.494     462.869

 3  4  5  6  7  8  9  10  11  12  13  23  27  28  29  30  32 0
 6-311+G(2d,p)
 ****
 34  35 0
 6-311+G(2d,p)
 ****
 1  2  14  15  16  17  18  19  20  21  22  24  25  26 0
 3-21G
 ****
 31  33  36  37  38  39  40  41  42  43  44  45  46 0
 3-21G
 ****


