%nproc=1
%NoSave
%Mem=1900MB
#P OB98/GEN NMR

erre ene a

0 1
  C       93.529    -253.653       5.847
  O       93.706    -254.918       6.457
  P       94.365    -254.979       7.918
  C       92.241    -255.947       9.124
  O       93.157    -254.879       8.968
  C       92.128    -256.338      10.601
  O       91.909    -255.137      11.391
  C       90.981    -257.308      10.914
  O       91.432    -258.172      11.965
  C       89.886    -256.384      11.417
  O       88.925    -257.057      12.214
  C       90.717    -255.342      12.174
  N       90.015    -254.076      12.380
  C       89.735    -253.693      13.688
  O       90.026    -254.364      14.676
  N       89.072    -252.500      13.829
  C       88.614    -251.709      12.817
  O       88.009    -250.660      13.001
  C       88.895    -252.189      11.457
  C       89.578    -253.324      11.305
  O       95.071    -253.548       7.998
  O       95.273    -256.143       8.118
  H       94.565    -252.848       7.551
  H       88.156    -256.467      12.322
  H       88.893    -252.185      14.771
  H       88.535    -251.596      10.627
  H       89.797    -253.699      10.312
  H       91.035    -255.747      13.141
  H       89.367    -255.937      10.561
  H       90.685    -257.902      10.045
  H       93.087    -256.764      10.919
  H       92.591    -256.812       8.553
  H       91.267    -255.650       8.723
  P       90.788    -259.643      12.067
  C       93.002    -261.039      12.093
  O       91.827    -260.666      11.408
  O       89.643    -259.528      10.949
  O       90.249    -260.002      13.412
  H       89.968    -259.161      10.112
  H       93.387    -261.963      11.654
  H       92.808    -261.211      13.155
  H       93.756    -260.255      11.981
  H       93.081    -253.781       4.884
  H       94.479    -253.174       5.738
  H       92.893    -253.048       6.459

 3  4  5  6  7  8  9  10  11  12  13  24  28  29  30  31  32 0
 6-311+G(2d,p)
 ****
 33  34 0
 6-311+G(2d,p)
 ****
 1  2  14  15  16  17  18  19  20  21  22  23  25  26  27 0
 3-21G
 ****
 35  36  37  38  39  40  41  42  43  44  45 0
 3-21G
 ****


