%nproc=1
%NoSave
%Mem=1900MB
#P OB98/GEN NMR

erre ene a

0 1
  C     -275.431    -226.961     433.892
  O     -276.157    -225.992     433.160
  H     -274.821    -227.541     433.195
  H     -276.124    -227.636     434.402
  H     -274.774    -226.476     434.620
  P     -276.983    -224.912     434.014
  C     -276.445    -223.926     436.387
  O     -275.968    -224.375     435.133
  C     -275.401    -223.046     437.079
  O     -274.220    -223.845     437.340
  C     -274.970    -221.834     436.250
  O     -274.724    -220.743     437.137
  C     -273.658    -222.284     435.628
  O     -272.836    -221.182     435.254
  C     -273.090    -223.176     436.744
  N     -272.101    -224.129     436.244
  C     -270.848    -223.615     435.898
  O     -270.623    -222.407     436.005
  N     -269.893    -224.462     435.399
  C     -270.185    -225.708     435.200
  N     -269.205    -226.496     434.678
  C     -271.507    -226.290     435.508
  C     -272.404    -225.455     436.030
  O     -277.993    -225.846     434.834
  O     -277.648    -223.855     433.197
  H     -272.652    -220.644     436.054
  H     -277.568    -226.633     435.214
  H     -271.705    -227.334     435.313
  H     -273.399    -225.797     436.295
  H     -272.616    -222.564     437.522
  H     -273.853    -222.878     434.727
  H     -275.717    -221.546     435.504
  H     -275.797    -222.735     438.053
  H     -268.320    -226.052     434.459
  H     -276.684    -224.778     437.032
  H     -269.334    -227.465     434.428
  H     -277.368    -223.361     436.218
  P     -275.956    -219.919     437.738
  C     -278.012    -220.698     439.103
  O     -276.597    -220.737     438.959
  O     -276.933    -219.396     436.742
  O     -275.230    -218.697     438.491
  H     -275.753    -217.890     438.324
  H     -278.300    -221.282     439.952
  H     -278.471    -221.097     438.223
  H     -278.328    -219.686     439.243

 6  7  8  9  10  11  12  13  14  15  16  26  30  31  32  33  35 0
 6-311+G(2d,p)
 ****
 37  38 0
 6-311+G(2d,p)
 ****
 1  2  3  4  5  17  18  19  20  21  22  23  24  25 0
 3-21G
 ****
 27  28  29  34  36  39  40  41  42  43  44  45  46 0
 3-21G
 ****


