%nproc=1
%NoSave
%Mem=1900MB
#P OB98/GEN NMR

erre ene a

0 1
  C       11.575     -67.156     -30.821
  O       11.022     -68.392     -30.404
  P       11.877     -69.726     -30.673
  C       12.078     -71.316     -32.727
  O       11.804     -70.009     -32.250
  C       12.470     -71.277     -34.205
  O       13.735     -70.576     -34.330
  C       12.648     -72.651     -34.860
  O       12.258     -72.514     -36.232
  C       14.145     -72.880     -34.776
  O       14.609     -73.837     -35.723
  C       14.660     -71.462     -34.997
  N       19.574     -72.419     -35.706
  C       18.475     -72.858     -36.421
  N       18.732     -73.610     -37.512
  N       17.239     -72.584     -36.097
  C       17.140     -71.809     -34.991
  C       18.147     -71.345     -34.178
  C       19.510     -71.623     -34.569
  O       20.514     -71.183     -34.016
  N       17.650     -70.666     -33.098
  C       16.348     -70.650     -33.302
  N       15.995     -71.290     -34.459
  O       10.958     -70.870     -30.040
  O       13.265     -69.729     -30.115
  H       15.558     -73.997     -35.545
  H       11.220     -71.062     -29.118
  H       20.503     -72.647     -36.015
  H       15.619     -70.190     -32.654
  H       14.692     -71.187     -36.059
  H       14.407     -73.243     -33.775
  H       19.660     -73.834     -37.837
  H       12.070     -73.444     -34.377
  H       17.946     -73.918     -38.072
  H       11.718     -70.690     -34.745
  H       11.176     -71.927     -32.622
  H       12.874     -71.767     -32.125
  P       11.736     -73.822     -36.997
  C       12.824     -75.867     -38.153
  O       13.018     -74.607     -37.544
  O       11.081     -73.216     -38.329
  O       10.740     -74.636     -36.239
  H       10.331     -73.774     -38.608
  H       13.675     -76.078     -38.805
  H       11.909     -75.890     -38.751
  H       12.772     -76.639     -37.381
  H       10.899     -66.363     -30.578
  H       11.736     -67.176     -31.879
  H       12.507     -66.996     -30.321

 3  4  5  6  7  8  9  10  11  12  23  26  30  31 0
 6-311+G(2d,p)
 ****
 33  35  36  37  38 0
 6-311+G(2d,p)
 ****
 1  2  13  14  15  16  17  18  19  20  21  22  24  25 0
 3-21G
 ****
 27  28  29  32  34  39  40  41  42  43  44  45  46  47  48  49 0
 3-21G
 ****


