%nproc=1
%NoSave
%Mem=1900MB
#P OB98/GEN NMR

erre ene a

0 1
  C      -52.652     -19.215     -26.365
  O      -52.312     -17.843     -26.217
  P      -50.917     -17.355     -26.848
  C      -48.438     -17.851     -26.266
  O      -49.787     -17.833     -25.814
  C      -47.498     -18.225     -25.128
  O      -47.353     -17.110     -24.229
  C      -47.977     -19.383     -24.265
  O      -47.699     -20.640     -24.863
  C      -47.142     -19.178     -23.010
  O      -45.829     -19.736     -23.203
  C      -47.063     -17.645     -22.913
  N      -47.548     -15.201     -18.505
  C      -46.409     -15.609     -19.171
  N      -45.230     -15.296     -18.591
  N      -46.424     -16.265     -20.300
  C      -47.671     -16.472     -20.783
  C      -48.876     -16.118     -20.215
  C      -48.846     -15.437     -18.939
  O      -49.824     -15.110     -18.272
  N      -49.929     -16.487     -21.012
  C      -49.366     -17.027     -22.073
  N      -47.997     -17.069     -21.967
  O      -50.961     -15.769     -26.638
  O      -50.705     -17.722     -28.276
  H      -45.940     -20.701     -23.300
  H      -50.395     -15.331     -27.303
  H      -47.479     -14.684     -17.647
  H      -49.906     -17.399     -22.932
  H      -46.052     -17.315     -22.648
  H      -47.570     -19.666     -22.128
  H      -45.152     -14.682     -17.795
  H      -49.039     -19.280     -24.021
  H      -44.384     -15.554     -19.082
  H      -46.512     -18.445     -25.557
  H      -48.169     -16.857     -26.637
  H      -48.350     -18.567     -27.089
  P      -48.790     -21.798     -24.640
  C      -49.843     -22.851     -22.511
  O      -48.808     -22.058     -23.059
  O      -48.074     -23.096     -25.238
  O      -50.109     -21.532     -25.281
  H      -48.743     -23.745     -25.532
  H      -50.121     -23.668     -23.183
  H      -50.719     -22.224     -22.319
  H      -49.499     -23.278     -21.567
  H      -53.599     -19.400     -25.902
  H      -51.903     -19.820     -25.899
  H      -52.711     -19.458     -27.405

 3  4  5  6  7  8  9  10  11  12  23  26  30  31  33  0
 6-311+G(2d,p)
 ****
 35  36  37  38 0
 6-311+G(2d,p)
 ****
 1  2  13  14  15  16  17  18  19  20  21  22  24  25  27  28  29 0
 3-21G
 ****
 32  34  39  40  41  42  43  44  45  46  47  48  49 0
 3-21G
 ****


