%nproc=1
%NoSave
%Mem=1900MB
#P OB98/GEN NMR

erre ene a

0 1
  C       36.401      43.765     -22.037
  O       35.711      42.573     -21.736
  H       37.454      43.526     -22.203
  H       36.325      44.457     -21.193
  H       36.003      44.241     -22.937
  P       34.118      42.547     -21.882
  C       33.534      43.543     -19.575
  O       33.494      42.393     -20.410
  C       32.396      43.545     -18.553
  O       32.540      44.662     -17.648
  C       31.025      43.707     -19.210
  O       30.441      42.513     -19.697
  C       30.200      44.294     -18.069
  O       29.678      43.253     -17.226
  C       31.226      45.137     -17.308
  N       28.913      49.575     -16.284
  C       28.643      48.318     -15.781
  N       27.586      48.224     -14.944
  N       29.337      47.254     -16.089
  C       30.302      47.483     -17.010
  C       30.654      48.681     -17.590
  C       29.914      49.864     -17.200
  O       30.109      50.999     -17.622
  N       31.689      48.524     -18.480
  C       31.911      47.226     -18.492
  N       31.112      46.555     -17.597
  O       33.823      41.111     -22.532
  O       33.533      43.646     -22.714
  H       29.371      43.657     -16.395
  H       32.989      41.139     -23.034
  H       28.364      50.363     -15.991
  H       32.651      46.725     -19.107
  H       31.115      45.020     -16.223
  H       29.341      44.860     -18.440
  H       26.954      48.991     -14.771
  H       31.074      44.448     -20.015
  H       27.197      47.296     -14.769
  H       32.450      42.631     -17.950
  H       33.447      44.411     -20.231
  H       34.501      43.612     -19.070
  P       29.593      42.531     -21.054
  C       27.360      41.624     -20.072
  O       28.467      41.399     -20.917
  O       30.618      41.923     -22.121
  O       29.094      43.873     -21.465
  H       31.068      42.642     -22.604
  H       26.712      40.773     -20.099
  H       26.827      42.489     -20.406
  H       27.702      41.780     -19.070

 6  7  8  9  10  11  12  13  14  15  26  29  33  34 0
 6-311+G(2d,p)
 ****
 36  38  39  40  41 0
 6-311+G(2d,p)
 ****
 1  2  3  4  5  16  17  18  19  20  21  22  23  24  25 0
 3-21G
 ****
 27  28  30  31  32  35  37  42  43  44  45  46  47 0
 3-21G
 ****
 48  49 0
 3-21G
 ****


