%nproc=1
%NoSave
%Mem=1900MB
#P OB98/GEN NMR

erre ene a

0 1
  C     -130.356    2622.359     162.995
  O     -131.534    2622.815     163.579
  P     -131.452    2623.916     164.781
  C     -132.495    2625.860     163.425
  O     -131.323    2625.350     164.092
  C     -132.331    2627.323     162.994
  O     -131.798    2628.110     164.103
  C     -131.441    2627.543     161.810
  O     -132.031    2628.649     161.020
  C     -130.148    2627.965     162.426
  O     -129.280    2628.603     161.527
  C     -130.656    2628.805     163.614
  N     -129.656    2629.002     164.665
  C     -128.756    2630.048     164.500
  O     -128.778    2630.711     163.447
  N     -127.864    2630.351     165.500
  C     -127.807    2629.506     166.514
  N     -126.902    2629.795     167.552
  C     -128.628    2628.289     166.628
  C     -129.517    2628.102     165.699
  O     -130.453    2623.598     165.842
  O     -132.940    2623.918     165.368
  H     -128.450    2628.838     161.982
  H     -132.895    2624.111     166.321
  H     -128.448    2627.595     167.433
  H     -130.176    2627.237     165.682
  H     -130.988    2629.810     163.234
  H     -129.579    2627.067     162.828
  H     -131.355    2626.701     161.127
  H     -133.357    2627.731     162.806
  H     -126.308    2630.651     167.401
  H     -133.351    2625.744     164.106
  H     -126.831    2629.241     168.402
  H     -132.720    2625.223     162.585
  P     -133.400    2628.374     160.270
  C     -134.761    2629.294     162.263
  O     -134.567    2628.271     161.325
  O     -133.240    2626.894     159.736
  O     -133.630    2629.296     159.051
  H     -133.764    2626.774     158.910
  H     -135.743    2629.178     162.734
  H     -134.709    2630.294     161.761
  H     -134.017    2629.276     163.038
  H     -130.589    2621.647     162.231
  H     -129.745    2621.895     163.740
  H     -129.828    2623.184     162.565

 3  4  5  6  7  8  9  10  11  12  13  23  27  28  29  30  32 0
 6-311+G(2d,p)
 ****
 34  35 0
 6-311+G(2d,p)
 ****
 1  2  14  15  16  17  18  19  20  21  22  24  25  26 0
 3-21G
 ****
 31  33  36  37  38  39  40  41  42  43  44  45  46 0
 3-21G
 ****


