%nproc=1
%NoSave
%Mem=1900MB
#P OB98/GEN NMR

erre ene a

0 1
  C      496.583      58.454    -327.157
  O      495.998      59.731    -326.991
  H      495.904      57.687    -326.778
  H      496.748      58.280    -328.224
  H      497.543      58.395    -326.637
  P      495.942      60.324    -325.501
  C      497.500      62.354    -325.939
  O      496.185      61.907    -325.635
  C      497.510      63.864    -326.161
  O      496.867      64.149    -327.437
  C      496.776      64.670    -325.077
  O      497.511      65.873    -324.830
  C      495.456      65.025    -325.738
  O      494.866      66.199    -325.192
  C      495.884      65.172    -327.194
  N      492.402      67.773    -329.837
  C      493.568      68.146    -329.269
  N      494.467      67.374    -328.627
  C      494.097      66.083    -328.662
  C      492.942      65.550    -329.210
  C      492.057      66.464    -329.807
  N      490.835      66.104    -330.328
  N      492.892      64.186    -328.994
  C      493.986      63.908    -328.307
  N      494.741      65.022    -328.082
  O      497.311      59.785    -324.866
  O      494.755      59.922    -324.693
  H      493.967      66.300    -325.562
  H      497.170      58.900    -324.483
  H      493.805      69.207    -329.327
  H      494.256      62.934    -327.929
  H      496.338      66.148    -327.405
  H      494.751      64.194    -325.616
  H      496.640      64.122    -324.137
  H      498.552      64.194    -326.249
  H      497.843      61.859    -326.854
  H      490.221      66.842    -330.638
  H      490.517      65.153    -330.215
  H      498.171      62.085    -325.117
  P      497.112      66.732    -323.536
  C      499.381      66.505    -322.278
  O      498.445      67.369    -322.915
  O      496.700      65.615    -322.467
  O      495.998      67.701    -323.775
  H      495.999      65.948    -321.882
  H      500.210      67.079    -321.919
  H      499.729      65.777    -322.980
  H      498.907      66.010    -321.456

 6  7  8  9  10  11  12  13  14  15  25  28  32  33  34  35 0
 6-311+G(2d,p)
 ****
 36  39  40 0
 6-311+G(2d,p)
 ****
 1  2  3  4  5  16  17  18  19  20  21  22  23  24 0
 3-21G
 ****
 26  27  29  30  31  37  38  41  42  43  44  45  46  47 0
 3-21G
 ****
 48 0
 3-21G
 ****


