%nproc=1
%NoSave
%Mem=1900MB
#P OB98/GEN NMR

erre ene a

0 1
  C     -548.154    -555.843    -899.130
  O     -548.220    -555.595    -897.740
  H     -548.421    -556.888    -899.330
  H     -547.138    -555.667    -899.490
  H     -548.851    -555.204    -899.680
  P     -548.181    -554.067    -897.270
  C     -550.514    -553.702    -896.190
  O     -549.695    -553.507    -897.340
  C     -551.655    -552.672    -896.170
  O     -551.084    -551.342    -896.300
  C     -552.661    -552.854    -897.320
  O     -553.977    -552.580    -896.830
  C     -552.254    -551.780    -898.320
  O     -553.342    -551.379    -899.150
  C     -551.740    -550.677    -897.390
  N     -550.939    -545.871    -898.680
  C     -551.937    -546.441    -897.880
  N     -552.853    -545.596    -897.380
  N     -552.011    -547.712    -897.630
  C     -551.006    -548.431    -898.180
  C     -549.983    -548.003    -898.990
  C     -549.918    -546.584    -899.280
  O     -549.090    -546.034    -900.000
  N     -549.187    -549.045    -899.390
  C     -549.727    -550.111    -898.830
  N     -550.839    -549.794    -898.070
  O     -547.459    -553.322    -898.490
  O     -547.470    -553.812    -895.980
  H     -552.957    -550.997    -899.980
  H     -546.607    -552.956    -898.200
  H     -550.948    -544.877    -898.860
  H     -549.366    -551.125    -898.930
  H     -552.555    -550.076    -896.990
  H     -551.451    -552.163    -898.960
  H     -552.826    -544.592    -897.480
  H     -552.638    -553.855    -897.760
  H     -553.562    -545.976    -896.750
  H     -552.149    -552.725    -895.200
  H     -549.902    -553.579    -895.290
  H     -550.926    -554.721    -896.210
  P     -554.887    -553.835    -896.430
  C     -554.523    -554.124    -893.890
  O     -554.201    -554.584    -895.180
  O     -554.643    -554.865    -897.650
  O     -556.331    -553.521    -896.270
  H     -555.444    -554.902    -898.200
  H     -554.000    -554.708    -893.162
  H     -555.577    -554.217    -893.731
  H     -554.237    -553.097    -893.796

 6  7  8  9  10  11  12  13  14  15  26  29  33  34 0
 6-311+G(2d,p)
 ****
 36  38  39  40  41 0
 6-311+G(2d,p)
 ****
 1  2  3  4  5  16  17  18  19  20  21  22  23  24  25 0
 3-21G
 ****
 27  28  30  31  32  35  37  42  43  44  45  46  47 0
 3-21G
 ****
 48  49 0
 3-21G
 ****


