%nproc=1
%NoSave
%Mem=1900MB
#P OB98/GEN NMR

erre ene a

0 1
  C      128.459     -34.483     -43.334
  O      127.083     -34.642     -43.057
  H      129.013     -34.502     -42.393
  H      128.622     -33.516     -43.815
  H      128.825     -35.287     -43.978
  P      126.128     -35.038     -44.282
  C      123.979     -33.737     -43.634
  O      124.622     -34.998     -43.722
  C      122.846     -33.787     -42.608
  O      123.418     -33.625     -41.275
  C      121.779     -32.693     -42.794
  O      120.495     -33.238     -42.465
  C      122.150     -31.678     -41.729
  O      121.048     -30.862     -41.352
  C      122.647     -32.600     -40.620
  N      123.177     -31.849     -35.686
  C      122.432     -32.784     -36.378
  N      121.656     -33.614     -35.647
  N      122.440     -32.894     -37.679
  C      123.275     -32.016     -38.288
  C      124.060     -31.042     -37.721
  C      124.028     -30.917     -36.278
  O      124.648     -30.097     -35.610
  N      124.713     -30.316     -38.684
  C      124.306     -30.836     -39.830
  N      123.431     -31.870     -39.640
  O      126.422     -36.602     -44.462
  O      126.359     -34.279     -45.545
  H      120.865     -30.237     -42.084
  H      127.103     -36.734     -45.148
  H      123.121     -31.794     -34.684
  H      124.597     -30.492     -40.811
  H      121.826     -33.084     -40.075
  H      122.956     -31.028     -42.093
  H      121.618     -33.610     -34.640
  H      121.752     -32.266     -43.802
  H      121.134     -34.331     -36.138
  H      122.387     -34.782     -42.640
  H      123.561     -33.475     -44.612
  H      124.713     -32.976     -43.352
  P      119.258     -32.884     -43.421
  C      117.567     -31.616     -41.901
  O      117.921     -32.836     -42.534
  O      119.076     -34.218     -44.286
  O      119.489     -31.693     -44.291
  H      118.782     -33.989     -45.188
  H      116.658     -31.749     -41.353
  H      117.428     -30.857     -42.642
  H      118.348     -31.322     -41.231

 6  7  8  9  10  11  12  13  14  15  26  29  33  34 0
 6-311+G(2d,p)
 ****
 36  38  39  40  41 0
 6-311+G(2d,p)
 ****
 1  2  3  4  5  16  17  18  19  20  21  22  23  24  25 0
 3-21G
 ****
 27  28  30  31  32  35  37  42  43  44  45  46  47 0
 3-21G
 ****
 48  49 0
 3-21G
 ****


