%nproc=1
%NoSave
%Mem=1900MB
#P OB98/GEN NMR

erre ene a

0 1
  C      -59.560     216.483     226.507
  O      -58.801     217.674     226.584
  H      -60.064     216.449     225.540
  H      -60.314     216.462     227.302
  H      -58.902     215.614     226.593
  P      -58.019     217.945     227.959
  C      -58.612     219.189     230.140
  O      -59.053     218.805     228.843
  C      -59.460     220.353     230.666
  O      -59.234     221.504     229.818
  C      -60.966     220.062     230.666
  O      -61.557     220.692     231.806
  C      -61.449     220.754     229.401
  O      -62.837     221.071     229.453
  C      -60.519     221.967     229.356
  N      -63.151     224.290     225.659
  C      -63.446     224.018     226.953
  N      -62.669     223.419     227.880
  C      -61.455     223.128     227.364
  C      -61.013     223.337     226.071
  C      -61.925     223.939     225.189
  N      -61.653     224.181     223.866
  N      -59.722     222.860     225.923
  C      -59.393     222.381     227.107
  N      -60.419     222.501     228.008
  O      -56.658     218.534     227.825
  O      -58.080     216.508     228.661
  H      -63.068     221.591     228.653
  H      -58.975     216.121     228.612
  H      -64.435     224.327     227.284
  H      -58.439     221.920     227.362
  H      -60.848     222.781     230.009
  H      -61.287     220.104     228.535
  H      -61.198     218.997     230.664
  H      -59.103     220.618     231.669
  H      -57.557     219.489     230.106
  H      -62.366     224.621     223.301
  H      -60.745     223.937     223.493
  H      -58.705     218.316     230.803
  P      -62.316     219.784     232.887
  C      -64.393     218.251     232.924
  O      -63.746     219.345     232.291
  O      -62.355     220.332     234.278
  O      -61.486     218.407     232.837
  H      -61.366     218.074     233.747
  H      -65.327     218.060     232.439
  H      -64.568     218.487     233.953
  H      -63.772     217.382     232.857

 6  7  8  9  10  11  12  13  14  15  25  28  32  33  34  35 0
 6-311+G(2d,p)
 ****
 36  39  40 0
 6-311+G(2d,p)
 ****
 1  2  3  4  5  16  17  18  19  20  21  22  23  24 0
 3-21G
 ****
 26  27  29  30  31  37  38  41  42  43  44  45  46  47 0
 3-21G
 ****
 48 0
 3-21G
 ****


