%nproc=1
%NoSave
%Mem=1900MB
#P OB98/GEN NMR

erre ene a

0 1
  C      704.577    -384.992    -218.797
  O      705.924    -384.647    -218.479
  P      706.598    -383.422    -219.265
  C      706.763    -381.901    -217.156
  O      706.263    -382.069    -218.480
  C      706.204    -380.627    -216.530
  O      704.772    -380.541    -216.658
  C      706.478    -380.511    -215.033
  O      707.791    -380.019    -214.780
  C      705.442    -379.476    -214.621
  O      705.907    -378.154    -214.958
  C      704.246    -379.853    -215.501
  N      699.663    -380.050    -213.213
  C      700.368    -379.018    -213.734
  N      701.589    -379.042    -214.313
  C      702.082    -380.289    -214.332
  C      701.484    -381.442    -213.832
  C      700.216    -381.284    -213.249
  N      699.504    -382.338    -212.709
  N      702.293    -382.538    -214.021
  C      703.357    -382.067    -214.637
  N      703.278    -380.709    -214.841
  O      705.700    -383.311    -220.584
  O      708.039    -383.632    -219.597
  H      706.777    -378.043    -214.541
  H      706.260    -383.031    -221.340
  H      699.885    -378.053    -213.694
  H      704.203    -382.666    -214.963
  H      703.701    -378.973    -215.863
  H      705.243    -379.480    -213.547
  H      706.290    -381.464    -214.517
  H      706.647    -379.765    -217.046
  H      707.857    -381.873    -217.174
  H      698.595    -382.152    -212.346
  H      699.897    -383.272    -212.765
  H      706.495    -382.781    -216.568
  P      708.947    -381.108    -214.550
  C      709.997    -380.773    -216.910
  O      709.330    -381.639    -216.009
  O      708.167    -382.328    -213.876
  O      710.079    -380.623    -213.706
  H      708.764    -382.825    -213.287
  H      710.447    -381.365    -217.705
  H      710.789    -380.215    -216.398
  H      709.274    -380.072    -217.344
  H      704.270    -385.822    -218.195
  H      704.512    -385.258    -219.831
  H      703.939    -384.155    -218.603

 3  4  5  6  7  8  9  10  11  12  22  25  29  30  31  32 0
 6-311+G(2d,p)
 ****
 33  36  37 0
 6-311+G(2d,p)
 ****
 1  2  13  14  15  16  17  18  19  20  21  23  24  26 0
 3-21G
 ****
 27  28  34  35  38  39  40  41  42  43  44  45  46  47  48 0
 3-21G
 ****


