%nproc=1
%NoSave
%Mem=1900MB
#P OB98/GEN NMR

erre ene a

0 1
  C      294.300     440.996     521.040
  O      293.792     440.037     521.945
  H      295.353     440.795     520.821
  H      293.730     440.938     520.110
  H      294.190     442.000     521.458
  P      294.571     439.893     523.342
  C      292.671     441.242     524.476
  O      294.068     441.105     524.269
  C      292.310     440.839     525.900
  O      292.583     439.439     526.105
  C      293.091     441.567     526.987
  O      292.583     442.872     527.222
  C      292.842     440.646     528.177
  O      291.545     440.920     528.740
  C      292.848     439.255     527.524
  N      296.240     437.320     530.864
  C      295.071     437.983     531.043
  N      294.230     438.475     530.114
  C      294.682     438.217     528.874
  C      295.851     437.554     528.534
  C      296.653     437.099     529.595
  N      297.848     436.441     529.399
  N      295.981     437.462     527.164
  C      294.906     438.061     526.683
  N      294.096     438.539     527.677
  O      296.075     440.309     522.974
  O      294.516     438.540     523.968
  H      291.586     441.820     529.115
  H      296.691     439.765     523.502
  H      294.771     438.129     532.077
  H      294.680     438.163     525.630
  H      292.042     438.624     527.917
  H      293.578     440.765     528.974
  H      294.161     441.585     526.762
  H      291.229     440.990     526.034
  H      292.134     440.599     523.772
  H      298.273     435.969     530.182
  H      298.146     436.269     528.447
  H      292.387     442.283     524.291
  P      293.613     443.977     527.772
  C      294.680     444.327     525.431
  O      294.874     443.918     526.780
  O      294.172     443.317     529.117
  O      293.027     445.326     528.012
  H      294.479     444.014     529.725
  H      295.601     444.234     524.894
  H      294.357     445.347     525.410
  H      293.937     443.708     524.974

 6  7  8  9  10  11  12  13  14  15  25  28  32  33  34  35 0
 6-311+G(2d,p)
 ****
 36  39  40 0
 6-311+G(2d,p)
 ****
 1  2  3  4  5  16  17  18  19  20  21  22  23  24 0
 3-21G
 ****
 26  27  29  30  31  37  38  41  42  43  44  45  46  47  48 0
 3-21G
 ****


