%nproc=1
%NoSave
%Mem=1900MB
#P OB98/GEN NMR

erre ene a

0 1
  C     -584.796     264.380    -579.403
  O     -584.135     263.767    -578.289
  P     -583.837     262.189    -578.409
  C     -581.400     261.588    -577.750
  O     -582.735     261.805    -577.317
  C     -580.537     261.093    -576.586
  O     -580.254     262.149    -575.633
  C     -581.208     259.984    -575.771
  O     -581.172     258.750    -576.456
  C     -580.368     260.021    -574.487
  O     -579.128     259.332    -574.677
  C     -580.103     261.532    -574.326
  N     -580.817     262.750    -569.406
  C     -579.814     262.096    -570.042
  N     -579.699     261.806    -571.354
  C     -580.753     262.287    -572.039
  C     -581.844     262.971    -571.532
  C     -581.855     263.210    -570.150
  N     -582.884     263.855    -569.497
  N     -582.731     263.302    -572.540
  C     -582.193     262.798    -573.631
  N     -580.996     262.180    -573.382
  O     -583.054     262.068    -579.803
  O     -585.074     261.351    -578.390
  H     -578.552     259.534    -573.906
  H     -583.629     261.643    -580.477
  H     -579.000     261.758    -569.404
  H     -582.635     262.843    -574.626
  H     -579.080     261.738    -573.988
  H     -580.873     259.567    -573.640
  H     -582.250     260.262    -575.540
  H     -579.583     260.723    -576.984
  H     -580.969     262.520    -578.141
  H     -582.847     263.912    -568.487
  H     -583.710     264.133    -570.021
  H     -581.402     260.867    -578.572
  P     -582.489     258.311    -577.271
  C     -581.483     256.937    -579.199
  O     -582.081     256.891    -577.909
  O     -582.444     259.296    -578.519
  O     -583.746     258.320    -576.473
  H     -581.546     259.347    -578.916
  H     -581.227     255.915    -579.505
  H     -580.571     257.528    -579.171
  H     -582.191     257.350    -579.922
  H     -584.937     265.422    -579.205
  H     -585.747     263.914    -579.554
  H     -584.197     264.262    -580.282

 3  4  5  6  7  8  9  10  11  12  22  25  29  30  31  32 0
 6-311+G(2d,p)
 ****
 33  36  37 0
 6-311+G(2d,p)
 ****
 1  2  13  14  15  16  17  18  19  20  21  23  24  26 0
 3-21G
 ****
 27  28  34  35  38  39  40  41  42  43  44  45  46  47  48 0
 3-21G
 ****


