%nproc=1
%NoSave
%Mem=1900MB
#P OB98/GEN NMR

erre ene a

0 1
  C      -13.836    -259.418      61.652
  O      -14.049    -260.293      62.742
  H      -13.855    -258.391      62.021
  H      -14.624    -259.537      60.902
  H      -12.858    -259.607      61.199
  P      -14.181    -261.866      62.444
  C      -11.697    -262.184      63.118
  O      -12.677    -262.331      62.102
  C      -11.685    -263.415      64.021
  O      -11.311    -264.598      63.285
  C      -10.691    -263.353      65.178
  O      -11.096    -262.488      66.227
  C      -10.683    -264.812      65.600
  O      -11.879    -265.107      66.342
  C      -10.692    -265.524      64.223
  N       -9.354    -265.900      63.766
  C       -8.930    -267.200      64.065
  O       -9.669    -267.971      64.684
  N       -7.670    -267.590      63.687
  C       -6.889    -266.749      63.081
  N       -5.630    -267.168      62.772
  C       -7.298    -265.374      62.734
  C       -8.523    -265.018      63.102
  O      -15.215    -262.264      61.444
  O      -14.401    -262.529      63.886
  H      -11.857    -264.557      67.148
  H      -14.499    -263.503      63.754
  H       -6.604    -264.710      62.234
  H       -8.891    -264.018      62.899
  H      -11.323    -266.421      64.253
  H       -9.831    -265.074      66.239
  H       -9.690    -263.086      64.818
  H      -12.712    -263.574      64.383
  H       -5.368    -268.107      63.068
  H      -11.929    -261.277      63.690
  H       -4.886    -266.512      62.565
  H      -10.704    -262.073      62.672
  P       -9.957    -261.848      67.156
  C       -9.508    -259.972      65.401
  O       -8.975    -261.025      66.189
  O       -9.089    -263.119      67.588
  O      -10.448    -261.061      68.337
  H       -9.382    -263.475      68.445
  H       -8.726    -259.531      64.819
  H       -9.938    -259.230      66.041
  H      -10.262    -260.361      64.749

 6  7  8  9  10  11  12  13  14  15  16  26  30  31  32  33  35 0
 6-311+G(2d,p)
 ****
 37  38 0
 6-311+G(2d,p)
 ****
 1  2  3  4  5  17  18  19  20  21  22  23  24  25 0
 3-21G
 ****
 27  28  29  34  36  39  40  41  42  43  44  45  46 0
 3-21G
 ****


