%nproc=1
%NoSave
%Mem=1900MB
#P OB98/GEN NMR

erre ene a

0 1
  C      628.337    -611.311      40.784
  O      628.373    -611.213      39.351
  P      628.267    -609.757      38.676
  C      628.460    -608.848      36.247
  O      628.078    -609.929      37.099
  C      628.019    -609.118      34.799
  O      628.717    -610.245      34.229
  C      626.536    -609.448      34.663
  O      625.750    -608.277      34.641
  C      626.503    -610.129      33.313
  O      626.519    -609.136      32.256
  C      627.819    -610.911      33.308
  N      626.630    -615.651      31.744
  C      626.656    -614.468      31.089
  N      626.961    -613.248      31.599
  C      627.299    -613.329      32.877
  C      627.326    -614.467      33.674
  C      626.971    -615.675      33.058
  N      626.948    -616.884      33.724
  N      627.709    -614.157      34.965
  C      627.914    -612.854      34.958
  N      627.670    -612.317      33.721
  O      629.757    -609.178      38.826
  O      627.280    -608.854      39.344
  H      627.427    -608.742      32.266
  H      629.729    -608.224      38.968
  H      626.379    -614.486      30.046
  H      628.236    -612.275      35.788
  H      628.316    -610.933      32.324
  H      625.604    -610.736      33.144
  H      626.210    -610.148      35.451
  H      628.252    -608.229      34.196
  H      629.545    -608.708      36.274
  H      626.724    -617.719      33.211
  H      627.221    -616.905      34.691
  H      628.004    -607.922      36.626
  P      625.012    -607.853      36.016
  C      624.404    -605.530      37.014
  O      624.602    -606.321      35.844
  O      626.206    -607.848      37.072
  O      623.898    -608.785      36.417
  H      625.854    -608.100      37.975
  H      624.449    -604.475      36.724
  H      625.190    -605.754      37.758
  H      623.430    -605.751      37.437
  H      628.418    -612.338      41.073
  H      627.413    -610.910      41.146
  H      629.153    -610.758      41.200

 3  4  5  6  7  8  9  10  11  12  22  25  29  30  31  32 0
 6-311+G(2d,p)
 ****
 33  36  37 0
 6-311+G(2d,p)
 ****
 1  2  13  14  15  16  17  18  19  20  21  23  24  26 0
 3-21G
 ****
 27  28  34  35  38  39  40  41  42  43  44  45  46  47  48 0
 3-21G
 ****


