%nproc=1
%NoSave
%Mem=1900MB
#P OB98/GEN NMR

erre ene a

0 1
  C      266.737    -238.216     358.622
  O      266.661    -237.692     359.933
  H      265.850    -237.901     358.067
  H      266.767    -239.308     358.650
  H      267.626    -237.834     358.110
  P      267.887    -238.023     360.912
  C      266.974    -240.390     361.496
  O      268.033    -239.621     360.935
  C      267.387    -241.855     361.584
  O      267.553    -242.394     360.249
  C      268.726    -242.078     362.276
  O      268.620    -242.010     363.691
  C      269.100    -243.459     361.760
  O      268.464    -244.493     362.524
  C      268.553    -243.440     360.329
  N      271.600    -245.700     356.910
  C      270.590    -246.176     357.680
  N      269.823    -245.501     358.558
  C      270.152    -244.202     358.578
  C      271.144    -243.573     357.853
  C      271.891    -244.378     356.975
  N      272.926    -243.901     356.215
  N      271.209    -242.231     358.176
  C      270.263    -242.048     359.074
  N      269.596    -243.211     359.349
  O      267.299    -237.671     362.359
  O      269.146    -237.271     360.625
  H      269.007    -244.609     363.332
  H      267.619    -236.793     362.634
  H      270.395    -247.239     357.585
  H      270.029    -241.111     359.560
  H      268.055    -244.382     360.062
  H      270.174    -243.622     361.820
  H      269.466    -241.353     361.914
  H      266.590    -242.414     362.081
  H      266.088    -240.302     360.860
  H      266.740    -239.992     362.490
  H      273.463    -244.547     355.658
  H      273.233    -242.940     356.340
  P      269.741    -241.188     364.482
  C      271.144    -243.319     365.030
  O      271.099    -242.039     364.412
  O      269.295    -241.311     366.014
  O      269.885    -239.762     364.059
  H      269.507    -240.486     366.490
  H      272.114    -243.748     364.891
  H      270.406    -243.955     364.587
  H      270.945    -243.217     366.076

 6  7  8  9  10  11  12  13  14  15  25  28  32  33  34  35 0
 6-311+G(2d,p)
 ****
 36  37  40 0
 6-311+G(2d,p)
 ****
 1  2  3  4  5  16  17  18  19  20  21  22  23  24 0
 3-21G
 ****
 26  27  29  30  31  38  39 41  42  43  44  45  46  47  48 0
 3-21G
 ****


