%nproc=1
%NoSave
%Mem=1900MB
#P OB98/GEN NMR

erre ene a

0 1
  C        9.840     -61.420     -37.475
  O       10.757     -62.367     -36.958
  P       11.372     -63.459     -37.955
  C       12.544     -63.382     -40.274
  O       11.707     -62.720     -39.339
  C       11.928     -63.324     -41.674
  O       10.856     -64.309     -41.770
  C       11.328     -61.958     -42.037
  O       11.518     -61.762     -43.445
  C        9.853     -62.161     -41.746
  O        9.018     -61.219     -42.401
  C        9.681     -63.607     -42.224
  N        8.455     -64.229     -41.726
  C        7.375     -64.299     -42.599
  O        7.393     -63.872     -43.753
  N        6.224     -64.832     -42.082
  C        6.024     -65.206     -40.786
  O        4.934     -65.566     -40.357
  C        7.201     -65.109     -39.908
  C        8.343     -64.634     -40.409
  O       10.113     -64.380     -38.311
  O       12.502     -64.253     -37.390
  H        8.108     -61.364     -42.086
  H       10.131     -65.200     -37.784
  H        5.435     -64.901     -42.704
  H        7.083     -65.419     -38.878
  H        9.221     -64.532     -39.780
  H        9.689     -63.646     -43.320
  H        9.678     -62.073     -40.668
  H       11.760     -61.125     -41.474
  H       12.696     -63.609     -42.405
  H       12.660     -64.425     -39.977
  H       13.537     -62.920     -40.270
  P       11.595     -60.253     -43.990
  C       13.511     -58.477     -43.938
  O       12.892     -59.590     -43.328
  O       10.372     -59.587     -43.195
  O       11.472     -60.143     -45.475
  H       10.340     -59.860     -42.263
  H       12.779     -57.826     -44.423
  H       14.232     -58.825     -44.680
  H       14.040     -57.903     -43.172
  H        9.523     -60.765     -36.690
  H        8.990     -61.930     -37.879
  H       10.314     -60.849     -38.246

 3  4  5  6  7  8  9  10  11  12  13  23  28  29  30  31  32 0
 6-311+G(2d,p)
 ****
 33  34 0
 6-311+G(2d,p)
 ****
 1  2  14  15  16  17  18  19  20  21  22  24  25  26 0
 3-21G
 ****
 27  35  36  37  38  39  40  41  42  43  44  45 0
 3-21G
 ****


