%nproc=1
%NoSave
%Mem=1900MB
#P OB98/GEN NMR

erre ene a

0 1
  C      149.795    -252.491      82.169
  O      151.072    -253.072      81.939
  P      151.134    -254.395      81.027
  C      150.510    -255.798      83.125
  O      150.208    -255.474      81.769
  C      149.356    -256.564      83.760
  O      148.165    -255.753      83.771
  C      148.972    -257.847      83.037
  O      149.817    -258.933      83.381
  C      147.569    -258.076      83.574
  O      147.638    -258.652      84.890
  C      147.021    -256.644      83.653
  N      142.464    -257.092      81.382
  C      142.966    -257.647      82.504
  N      144.194    -257.486      83.037
  C      144.949    -256.684      82.268
  C      144.581    -256.074      81.078
  C      143.266    -256.294      80.636
  N      142.741    -255.706      79.507
  N      145.624    -255.329      80.572
  C      146.596    -255.471      81.444
  N      146.236    -256.274      82.493
  O      152.618    -254.941      81.284
  O      150.860    -254.175      79.577
  H      148.042    -259.537      84.793
  H      152.897    -255.503      80.539
  H      142.291    -258.302      83.050
  H      147.574    -255.011      81.365
  H      146.394    -256.484      84.539
  H      146.979    -258.756      82.955
  H      148.928    -257.693      81.950
  H      149.626    -256.779      84.803
  H      150.674    -254.871      83.682
  H      141.747    -255.765      79.364
  H      143.276    -254.958      79.070
  H      151.429    -256.393      83.154
  P      150.094    -260.028      82.238
  C      148.516    -261.836      83.233
  O      148.768    -260.924      82.182
  O      151.183    -260.984      82.913
  O      150.561    -259.454      80.945
  H      151.718    -261.428      82.227
  H      147.462    -262.123      83.203
  H      148.726    -261.387      84.206
  H      149.129    -262.735      83.100
  H      149.904    -251.624      82.787
  H      149.163    -253.202      82.659
  H      149.357    -252.210      81.234

 3  4  5  6  7  8  9  10  11  12  22  25  29  30  31  32 0
 6-311+G(2d,p)
 ****
 33  36  37 0
 6-311+G(2d,p)
 ****
 1  2  13  14  15  16  17  18  19  20  21  23  24  26 0
 3-21G
 ****
 27  28  34  35  38  39  40  41  42  43  44  45  46  47  48 0
 3-21G
 ****


