%nproc=1
%NoSave
%Mem=1900MB
#P OB98/GEN NMR

erre ene a

0 1
  C      340.282    -144.981     492.491
  O      340.879    -144.140     491.498
  P      342.059    -144.768     490.610
  C      343.737    -143.049     491.658
  O      343.418    -144.402     491.381
  C      345.189    -142.933     492.119
  O      345.453    -143.858     493.203
  C      346.209    -143.271     491.041
  O      346.321    -142.225     490.086
  C      347.454    -143.499     491.886
  O      348.059    -142.247     492.241
  C      346.865    -144.176     493.146
  N      347.088    -145.617     493.178
  C      348.331    -146.025     493.654
  O      349.208    -145.242     494.006
  N      348.536    -147.378     493.692
  C      347.653    -148.336     493.283
  O      347.892    -149.537     493.352
  C      346.377    -147.839     492.742
  C      346.156    -146.523     492.715
  O      342.046    -143.793     489.345
  O      341.851    -146.213     490.303
  H      341.831    -142.874     489.575
  H      348.784    -142.455     492.864
  H      349.425    -147.697     494.047
  H      345.667    -148.572     492.386
  H      345.222    -146.138     492.318
  H      347.311    -143.742     494.050
  H      348.214    -144.093     491.366
  H      345.926    -144.203     490.537
  H      345.351    -141.913     492.484
  H      343.081    -142.663     492.445
  H      343.560    -142.450     490.759
  P      345.632    -142.476     488.654
  C      347.735    -143.489     487.477
  O      346.429    -143.686     487.971
  O      346.123    -141.182     487.849
  O      344.149    -142.633     488.722
  H      347.063    -140.983     487.985
  H      348.223    -144.461     487.380
  H      348.328    -142.862     488.145
  H      347.682    -143.023     486.491
  H      339.516    -144.438     493.004
  H      341.029    -145.292     493.191
  H      339.855    -145.841     492.020

 3  4  5  6  7  8  9  10  11  12  13  24  28  29  30  31  32 0
 6-311+G(2d,p)
 ****
 33  34 0
 6-311+G(2d,p)
 ****
 1  2  14  15  16  17  18  19  20  21  22  23  25  26  27 0
 3-21G
 ****
 35  36  37  38  39  40  41  42  43  44  45 0
 3-21G
 ****


