%nproc=1
%NoSave
%Mem=1900MB
#P OB98/GEN NMR

erre ene a

0 1
  C       79.602      57.620      62.452
  O       79.482      58.133      63.763
  H       79.127      56.637      62.386
  H       79.100      58.300      61.759
  H       80.657      57.543      62.171
  P       80.126      57.258      64.943
  C       78.055      55.690      65.085
  O       79.444      55.810      64.814
  C       77.843      54.646      66.175
  O       76.475      54.687      66.643
  C       78.078      53.214      65.709
  O       79.449      52.858      65.712
  C       77.305      52.442      66.765
  O       78.066      52.393      67.985
  C       76.062      53.327      66.946
  N       72.017      50.242      66.373
  C       72.892      50.403      67.390
  N       73.928      51.261      67.473
  C       74.016      52.012      66.364
  C       73.193      51.966      65.251
  C       72.152      51.023      65.276
  N       71.278      50.834      64.229
  N       73.611      52.878      64.301
  C       74.653      53.474      64.843
  N       74.957      52.963      66.076
  O       79.456      57.854      66.269
  O       81.617      57.236      65.001
  H       78.063      53.294      68.359
  H       79.940      57.549      67.061
  H       72.740      49.754      68.247
  H       75.225      54.269      64.382
  H       75.683      53.315      67.975
  H       77.103      51.410      66.470
  H       77.623      53.030      64.729
  H       78.492      54.896      67.023
  H       77.538      55.379      64.171
  H       70.663      50.037      64.281
  H       71.459      51.304      63.355
  H       77.662      56.659      65.409
  P       79.951      51.828      64.586
  C       80.370      49.864      66.234
  O       79.613      50.358      65.135
  O       81.543      51.911      64.709
  O       79.472      52.134      63.206
  H       81.967      51.769      63.842
  H       80.033      48.880      66.485
  H       80.240      50.511      67.076
  H       81.406      49.829      65.967

 6  7  8  9  10  11  12  13  14  15  25  28  32  33  34  35 0
 6-311+G(2d,p)
 ****
 36  39  40 0
 6-311+G(2d,p)
 ****
 1  2  3  4  5  16  17  18  19  20  21  22  23  24 0
 3-21G
 ****
 26  27  29  30  31  37  38  41  42  43  44  45  46  47 0
 3-21G
 ****
 48 0
 3-21G
 ****


