%nproc=1
%NoSave
%Mem=1900MB
#P OB98/GEN NMR

erre ene a

0 1
  C     -109.511     284.153     -37.584
  O     -108.432     284.843     -36.982
  H     -110.317     284.046     -36.847
  H     -109.188     283.154     -37.893
  H     -109.899     284.704     -38.447
  P     -107.235     285.370     -37.907
  C     -107.710     287.822     -38.550
  O     -107.091     286.944     -37.621
  C     -107.836     289.231     -37.958
  O     -108.358     289.118     -36.594
  C     -106.499     290.002     -37.871
  O     -106.799     291.399     -38.042
  C     -106.082     289.704     -36.443
  O     -105.048     290.550     -36.012
  C     -107.439     289.833     -35.742
  N     -107.446     289.297     -34.386
  C     -107.181     290.181     -33.345
  O     -106.963     291.387     -33.508
  N     -107.163     289.638     -32.087
  C     -107.371     288.323     -31.780
  O     -107.363     287.893     -30.629
  C     -107.617     287.431     -32.925
  C     -107.646     287.950     -34.154
  O     -107.319     284.996     -39.350
  O     -105.925     284.757     -37.214
  H     -105.658     283.944     -37.680
  H     -105.354     291.485     -35.996
  H     -106.972     290.267     -31.324
  H     -107.767     286.376     -32.714
  H     -107.819     287.320     -35.023
  H     -107.766     290.878     -35.718
  H     -105.704     288.680     -36.370
  H     -105.775     289.685     -38.629
  H     -108.581     289.796     -38.531
  H     -108.705     287.428     -38.787
  H     -107.110     287.859     -39.469
  P     -106.136     292.304     -39.189
  C     -107.300     291.414     -41.310
  O     -107.182     292.493     -40.394
  O     -104.791     291.821     -39.639
  O     -106.014     293.776     -38.556
  H     -105.194     294.202     -38.881
  H     -108.022     291.660     -42.060
  H     -107.614     290.535     -40.787
  H     -106.352     291.234     -41.773

 6  7  8  9  10  11  12  13  14  15  16  27  31  32  33  34  35 0
 6-311+G(2d,p)
 ****
 36  37 0
 6-311+G(2d,p)
 ****
 1  2  3  4  5  17  18  19  20  21  22  23  24  25 0
 3-21G
 ****
 26  28  29  30  38  39  40  41  42  43  44  45 0
 3-21G
 ****


