%nproc=1
%NoSave
%Mem=1900MB
#P OB98/GEN NMR

erre ene a

0 1
  C       79.048     -59.930     142.064
  O       78.057     -59.818     141.062
  H       78.935     -59.098     142.763
  H       80.040     -59.876     141.611
  H       78.935     -60.869     142.609
  P       77.987     -60.997     139.976
  C       77.418     -62.865     141.684
  O       78.362     -62.353     140.755
  C       76.907     -64.232     141.239
  O       78.037     -65.153     141.156
  C       75.873     -64.861     142.186
  O       74.935     -65.598     141.393
  C       76.703     -65.856     142.981
  O       75.912     -66.889     143.566
  C       77.667     -66.333     141.896
  N       79.422     -70.794     143.422
  C       78.210     -70.453     142.856
  N       77.325     -71.457     142.663
  N       77.891     -69.236     142.504
  C       78.885     -68.338     142.724
  C       80.123     -68.545     143.281
  C       80.452     -69.895     143.690
  O       81.501     -70.254     144.216
  N       80.831     -67.372     143.359
  C       80.023     -66.462     142.847
  N       78.830     -67.000     142.448
  O       79.276     -60.713     139.070
  O       76.734     -61.051     139.168
  H       76.515     -67.497     144.040
  H       79.032     -60.170     138.297
  H       79.612     -71.745     143.687
  H       80.249     -65.407     142.747
  H       77.196     -67.040     141.201
  H       77.243     -65.341     143.787
  H       77.518     -72.424     142.865
  H       75.342     -64.142     142.818
  H       76.446     -71.234     142.207
  H       76.501     -64.140     140.225
  H       76.573     -62.170     141.748
  H       77.888     -62.944     142.669
  P       73.388     -65.186     141.480
  C       73.314     -63.750     139.313
  O       73.204     -63.783     140.729
  O       73.214     -64.786     143.023
  O       72.441     -66.268     141.082
  H       72.295     -64.937     143.303
  H       73.167     -62.748     138.967
  H       72.571     -64.389     138.883
  H       74.287     -64.088     139.023

 6  7  8  9  10  11  12  13  14  15  26  29  33  34 0
 6-311+G(2d,p)
 ****
 36  38  39  40  41 0
 6-311+G(2d,p)
 ****
 1  2  3  4  5  16  17  18  19  20  21  22  23  24  25 0
 3-21G
 ****
 27  28  30  31  32  35  37  42  43  44  45  46  47 0
 3-21G
 ****
 48  49 0
 3-21G
 ****


