%nproc=1
%NoSave
%Mem=1900MB
#P OB98/GEN NMR

erre ene a

0 1
  C      182.394     164.502    -369.054
  O      182.559     163.102    -369.017
  H      181.535     164.773    -368.432
  H      182.201     164.834    -370.078
  H      183.279     165.013    -368.661
  P      183.869     162.460    -369.679
  C      185.053     162.678    -371.960
  O      183.848     162.859    -371.231
  C      184.799     161.832    -373.204
  O      184.398     160.494    -372.823
  C      183.674     162.358    -374.091
  O      184.108     163.479    -374.843
  C      183.357     161.118    -374.910
  O      184.307     160.953    -375.981
  C      183.518     160.000    -373.855
  N      182.236     159.559    -373.284
  C      181.373     158.906    -374.155
  O      181.619     158.724    -375.342
  N      180.192     158.467    -373.599
  C      179.776     158.697    -372.319
  O      178.690     158.333    -371.889
  C      180.721     159.426    -371.465
  C      181.887     159.817    -371.970
  O      184.087     161.005    -369.407
  O      185.062     163.348    -369.095
  H      184.289     161.786    -376.496
  H      185.497     162.880    -368.358
  H      179.548     157.999    -374.219
  H      180.421     159.632    -370.441
  H      182.594     160.360    -371.359
  H      184.009     159.129    -374.294
  H      182.363     161.161    -375.374
  H      182.799     162.615    -373.485
  H      185.734     161.760    -373.764
  H      185.782     162.166    -371.319
  H      185.456     163.662    -372.234
  P      183.206     164.073    -376.029
  C      183.239     164.089    -378.581
  O      183.799     163.520    -377.412
  O      182.997     165.548    -375.983
  O      181.819     163.287    -375.884
  H      181.134     163.877    -375.507
  H      183.699     163.656    -379.444
  H      183.408     165.146    -378.579
  H      182.187     163.896    -378.603

 6  7  8  9  10  11  12  13  14  15  16  26  31  32  33  34  35 0
 6-311+G(2d,p)
 ****
 36  37 0
 6-311+G(2d,p)
 ****
 1  2  3  4  5  17  18  19  20  21  22  23  24  25 0
 3-21G
 ****
 27  28  29  30  38  39  40  41  42  43  44  45 0
 3-21G
 ****


