%nproc=1
%NoSave
%Mem=1900MB
#P OB98/GEN NMR

erre ene a

0 1
  C      208.496    -154.597     222.558
  O      207.941    -153.619     223.421
  P      207.391    -152.232     222.844
  C      204.914    -153.006     222.432
  O      206.138    -152.537     221.907
  C      203.764    -152.218     221.797
  O      203.703    -150.886     222.350
  C      203.943    -152.090     220.280
  O      203.234    -153.115     219.605
  C      203.409    -150.697     220.002
  O      201.971    -150.717     219.917
  C      203.859    -149.931     221.268
  N      205.240    -149.414     221.312
  C      205.562    -148.242     220.631
  O      204.743    -147.575     220.005
  N      206.880    -147.870     220.674
  C      207.870    -148.518     221.355
  O      209.069    -148.321     221.192
  C      207.421    -149.577     222.265
  C      206.154    -149.988     222.184
  O      208.532    -151.795     221.810
  O      207.124    -151.175     223.864
  H      201.686    -149.812     219.699
  H      209.130    -151.141     222.214
  H      207.144    -147.099     220.069
  H      208.151    -150.026     222.928
  H      205.809    -150.797     222.821
  H      203.192    -149.084     221.474
  H      203.763    -150.325     219.044
  H      205.010    -152.115     220.023
  H      202.818    -152.722     222.023
  H      204.904    -152.884     223.522
  H      204.801    -154.075     222.226
  P      203.756    -153.633     218.185
  C      205.314    -155.437     219.120
  O      205.234    -154.195     218.456
  O      203.635    -152.656     217.062
  O      202.878    -154.947     217.928
  H      202.119    -154.730     217.344
  H      206.350    -155.790     219.083
  H      204.671    -156.177     218.636
  H      205.021    -155.315     220.166
  H      208.804    -155.446     223.132
  H      209.342    -154.185     222.049
  H      207.761    -154.898     221.841

 3  4  5  6  7  8  9  10  11  12  13  23  28  29  30  31  32 0
 6-311+G(2d,p)
 ****
 33  34 0
 6-311+G(2d,p)
 ****
 1  2  14  15  16  17  18  19  20  21  22  24  25  26  27 0
 3-21G
 ****
 35  36  37  38  39  40  41  42  43  44  45 0
 3-21G
 ****


