%nproc=1
%NoSave
%Mem=1900MB
#P OB98/GEN NMR

erre ene a

0 1
  C      -33.900    -281.738      38.355
  O      -33.041    -281.510      39.482
  P      -31.458    -281.663      39.264
  C      -29.337    -280.640      40.369
  O      -30.717    -280.956      40.495
  C      -28.978    -279.453      41.268
  O      -29.533    -278.212      40.768
  C      -29.500    -279.592      42.697
  O      -28.632    -280.394      43.495
  C      -29.449    -278.148      43.171
  O      -28.102    -277.798      43.544
  C      -29.868    -277.378      41.910
  N      -33.515    -274.532      43.961
  C      -32.158    -274.573      44.226
  N      -31.706    -273.724      45.173
  N      -31.323    -275.373      43.622
  C      -31.912    -276.154      42.680
  C      -33.241    -276.206      42.329
  C      -34.160    -275.328      43.020
  O      -35.371    -275.258      42.836
  N      -33.462    -277.132      41.342
  C      -32.262    -277.620      41.081
  N      -31.290    -277.075      41.880
  O      -31.166    -280.660      38.050
  O      -31.013    -283.056      38.951
  H      -28.089    -276.828      43.670
  H      -30.384    -280.963      37.550
  H      -34.111    -273.901      44.462
  H      -32.049    -278.374      40.329
  H      -29.328    -276.434      41.794
  H      -30.078    -277.977      44.049
  H      -32.286    -273.045      45.645
  H      -30.529    -279.962      42.709
  H      -30.709    -273.711      45.358
  H      -27.886    -279.361      41.294
  H      -29.100    -280.398      39.329
  H      -28.745    -281.522      40.612
  P      -29.190    -281.798      44.030
  C      -27.887    -283.733      45.165
  O      -28.103    -282.338      45.068
  O      -29.025    -282.754      42.754
  O      -30.601    -281.762      44.515
  H      -29.722    -283.430      42.750
  H      -27.006    -283.906      45.793
  H      -27.708    -284.169      44.182
  H      -28.754    -284.213      45.636
  H      -34.919    -281.601      38.650
  H      -33.763    -282.738      37.999
  H      -33.658    -281.045      37.576

 3  4  5  6  7  8  9  10  11  12  23  26  30  31 0
 6-311+G(2d,p)
 ****
 33  35  36  37  38 0
 6-311+G(2d,p)
 ****
 1  2  13  14  15  16  17  18  19  20  21  22  24  25 0
 3-21G
 ****
 27  28  29  32  34  39  40  41  42  43  44  45  46  47  48  49 0
 3-21G
 ****


