%nproc=1
%NoSave
%Mem=1900MB
#P OB98/GEN NMR

erre ene a

0 1
  C     -163.838     -74.211    -280.322
  O     -163.635     -74.132    -278.924
  H     -163.619     -75.230    -280.650
  H     -163.167     -73.522    -280.841
  H     -164.879     -73.979    -280.565
  P     -163.872     -72.698    -278.245
  C     -161.373     -72.714    -277.569
  O     -162.419     -72.019    -278.235
  C     -160.162     -71.803    -277.383
  O     -159.554     -71.516    -278.654
  C     -160.479     -70.457    -276.746
  O     -160.532     -70.577    -275.333
  C     -159.277     -69.637    -277.189
  O     -158.156     -69.917    -276.325
  C     -158.995     -70.178    -278.599
  N     -157.935     -67.476    -282.834
  C     -157.135     -67.987    -281.872
  N     -157.487     -68.646    -280.748
  C     -158.824     -68.769    -280.667
  C     -159.764     -68.299    -281.571
  C     -159.273     -67.627    -282.703
  N     -160.093     -67.107    -283.683
  N     -161.042     -68.605    -281.154
  C     -160.870     -69.305    -280.050
  N     -159.550     -69.400    -279.693
  O     -164.603     -72.710    -276.945
  O     -164.611     -71.917    -279.432
  H     -158.014     -70.883    -276.352
  H     -164.203     -72.133    -280.289
  H     -156.070     -67.844    -282.025
  H     -161.667     -69.779    -279.484
  H     -157.920     -70.264    -278.794
  H     -159.457     -68.562    -277.135
  H     -161.389     -70.013    -277.163
  H     -159.418     -72.351    -276.784
  H     -161.083     -73.601    -278.143
  H     -159.671     -66.481    -284.350
  H     -161.088     -67.109    -283.514
  H     -161.756     -73.040    -276.598
  P     -160.981     -69.340    -274.414
  C     -158.604     -69.058    -273.478
  O     -159.654     -68.460    -274.227
  O     -161.687     -69.725    -273.161
  O     -161.880     -68.436    -275.379
  H     -162.411     -67.808    -274.851
  H     -157.777     -68.382    -273.421
  H     -158.293     -69.962    -273.959
  H     -158.952     -69.280    -272.491

 6  7  8  9  10  11  12  13  14  15  25  28  32  33  34  35 0
 6-311+G(2d,p)
 ****
 36  39  40 0
 6-311+G(2d,p)
 ****
 1  2  3  4  5  16  17  18  19  20  21  22  23  24 0
 3-21G
 ****
 26  27  29  30  31  37  38  41  42  43  44  45  46  47 0
 3-21G
 ****
 48 0
 3-21G
 ****


