%nproc=1
%NoSave
%Mem=1900MB
#P OB98/GEN NMR

erre ene a

0 1
  C     -181.070     816.395     -99.879
  O     -181.800     817.562    -100.185
  H     -181.266     816.129     -98.832
  H     -179.999     816.586     -99.994
  H     -181.368     815.556    -100.514
  P     -182.071     817.919    -101.727
  C     -180.824     820.053    -102.485
  O     -180.760     818.640    -102.307
  C     -180.400     820.801    -101.218
  O     -179.196     820.214    -100.686
  C     -180.100     822.280    -101.483
  O     -181.229     823.133    -101.418
  C     -179.102     822.607    -100.374
  O     -179.779     823.023     -99.169
  C     -178.378     821.271    -100.146
  N     -173.566     819.563     -99.888
  C     -174.567     819.477     -98.935
  N     -174.224     818.901     -97.761
  N     -175.780     819.932     -99.121
  C     -175.942     820.582    -100.304
  C     -175.014     820.739    -101.315
  C     -173.696     820.165    -101.131
  O     -172.785     820.206    -101.941
  N     -175.526     821.492    -102.354
  C     -176.727     821.832    -101.929
  N     -177.042     821.246    -100.733
  O     -183.120     819.128    -101.649
  O     -182.603     816.793    -102.560
  H     -180.162     823.901     -99.336
  H     -183.711     819.095    -102.428
  H     -172.665     819.166     -99.692
  H     -177.408     822.485    -102.466
  H     -178.264     821.057     -99.079
  H     -178.444     823.426    -100.670
  H     -173.287     818.600     -97.534
  H     -179.591     822.410    -102.452
  H     -174.874     818.982     -96.974
  H     -181.187     820.686    -100.458
  H     -181.867     820.282    -102.726
  H     -180.207     820.363    -103.336
  P     -181.264     824.511    -102.242
  C     -181.148     826.792    -100.931
  O     -180.496     825.623    -101.386
  O     -182.801     824.958    -102.118
  O     -180.820     824.434    -103.666
  H     -183.295     824.719    -102.928
  H     -180.456     827.396    -100.382
  H     -181.965     826.520    -100.296
  H     -181.516     827.345    -101.770

 6  7  8  9  10  11  12  13  14  15  26  29  33  34 0
 6-311+G(2d,p)
 ****
 36  38  39  40  41 0
 6-311+G(2d,p)
 ****
 1  2  3  4  5  16  17  18  19  20  21  22  23  24  25 0
 3-21G
 ****
 27  28  30  31  32  35  37  42  43  44  45  46  47 0
 3-21G
 ****
 48  49 0
 3-21G
 ****


