%nproc=1
%NoSave
%Mem=1900MB
#P OB98/GEN NMR

erre ene a

0 1
  C      961.333     224.385     519.686
  O      962.681     224.647     519.355
  H      961.272     223.817     520.622
  H      960.814     225.334     519.811
  H      960.843     223.822     518.887
  P      963.648     223.368     519.227
  C      963.848     222.904     521.766
  O      964.504     223.313     520.577
  C      964.861     222.731     522.904
  O      965.541     221.474     522.780
  C      965.953     223.795     522.932
  O      965.489     225.027     523.499
  C      966.977     223.111     523.815
  O      966.607     223.278     525.205
  C      966.853     221.642     523.405
  N      971.763     220.253     522.870
  C      971.043     220.629     523.959
  N      969.753     220.993     524.018
  C      969.176     220.927     522.812
  C      969.774     220.568     521.620
  C      971.142     220.216     521.671
  N      971.887     219.858     520.563
  N      968.874     220.602     520.579
  C      967.743     220.989     521.129
  N      967.869     221.203     522.475
  O      964.713     223.819     518.126
  O      962.966     222.098     518.845
  H      966.577     224.237     525.374
  H      964.957     223.040     517.579
  H      971.587     220.639     524.895
  H      966.804     221.111     520.593
  H      966.858     220.973     524.280
  H      967.987     223.524     523.716
  H      966.383     223.963     521.920
  H      964.294     222.718     523.850
  H      963.342     221.940     521.594
  H      972.786     219.433     520.696
  H      971.400     219.812     519.671
  H      963.088     223.649     522.031
  P      965.292     226.274     522.513
  C      967.768     226.716     521.860
  O      966.646     227.140     522.631
  O      964.207     227.154     523.275
  O      964.858     225.934     521.125
  H      963.718     227.728     522.624
  H      968.591     227.377     522.034
  H      967.513     226.730     520.821
  H      968.042     225.722     522.146

 6  7  8  9  10  11  12  13  14  15  25  28  32  33  34  35 0
 6-311+G(2d,p)
 ****
 36  39  40 0
 6-311+G(2d,p)
 ****
 1  2  3  4  5  16  17  18  19  20  21  22  23  24 0
 3-21G
 ****
 26  27  29  30  31  37  38  41  42  43  44  45  46  47  48 0
 3-21G
 ****


