%nproc=1
%NoSave
%Mem=1900MB
#P OB98/GEN NMR

erre ene a

0 1
  C     -306.982     252.262     385.380
  O     -308.088     253.127     385.239
  H     -306.927     251.942     386.427
  H     -306.056     252.776     385.125
  H     -307.111     251.376     384.751
  P     -308.302     253.897     383.842
  C     -307.527     256.201     384.677
  O     -307.205     255.084     383.856
  C     -306.275     256.962     385.105
  O     -306.653     258.105     385.925
  C     -305.279     256.116     385.918
  O     -303.953     256.325     385.417
  C     -305.396     256.686     387.333
  O     -304.223     256.453     388.106
  C     -305.725     258.154     387.030
  N     -306.303     258.856     388.179
  C     -305.468     259.005     389.294
  O     -304.331     258.523     389.290
  N     -305.955     259.655     390.402
  C     -307.187     260.074     390.414
  N     -307.613     260.699     391.542
  C     -308.110     259.895     389.278
  C     -307.610     259.292     388.200
  O     -309.707     254.343     383.582
  O     -307.730     252.894     382.739
  H     -304.346     256.864     388.987
  H     -308.101     253.135     381.852
  H     -309.129     260.253     389.336
  H     -308.214     259.129     387.308
  H     -304.832     258.700     386.711
  H     -306.248     256.212     387.848
  H     -305.500     255.060     385.903
  H     -305.798     257.377     384.201
  H     -306.946     260.804     392.304
  H     -308.073     255.841     385.560
  H     -308.544     261.066     391.671
  H     -308.180     256.876     384.102
  P     -303.306     255.089     384.619
  C     -302.152     254.046     386.698
  O     -303.106     253.875     385.661
  O     -301.812     255.585     384.323
  O     -304.034     254.736     383.357
  H     -301.744     255.903     383.398
  H     -302.127     253.167     387.308
  H     -302.425     254.889     387.298
  H     -301.185     254.211     386.270

 6  7  8  9  10  11  12  13  14  15  16  26  30  31  32  33  35 0
 6-311+G(2d,p)
 ****
 37  38 0
 6-311+G(2d,p)
 ****
 1  2  3  4  5  17  18  19  20  21  22  23  24  25 0
 3-21G
 ****
 27  28  29  34  36  39  40  41  42  43  44  45  46 0
 3-21G
 ****


