%nproc=1
%NoSave
%Mem=1900MB
#P OB98/GEN NMR

erre ene a

0 1
  C       77.679      -1.171     -58.062
  O       77.279      -0.257     -59.068
  P       77.010      -0.847     -60.536
  C       78.303      -2.593     -61.966
  O       78.369      -1.577     -60.969
  C       79.672      -3.237     -62.160
  O       79.845      -4.319     -61.227
  C       79.880      -3.845     -63.536
  O       80.157      -2.839     -64.489
  C       81.048      -4.788     -63.275
  O       82.305      -4.103     -63.403
  C       80.806      -5.227     -61.811
  N       80.364      -6.608     -61.709
  C       81.309      -7.578     -62.065
  O       82.426      -7.238     -62.455
  N       80.948      -8.902     -62.007
  C       79.749      -9.224     -61.631
  N       79.449     -10.551     -61.587
  C       78.719      -8.232     -61.267
  C       79.088      -6.954     -61.333
  O       76.978       0.460     -61.454
  O       75.765      -1.663     -60.663
  H       82.993      -4.794     -63.316
  H       76.437       0.311     -62.252
  H       77.734      -8.554     -60.961
  H       78.393      -6.161     -61.085
  H       81.727      -5.121     -61.225
  H       81.067      -5.620     -63.984
  H       78.999      -4.424     -63.838
  H       80.440      -2.480     -61.952
  H       80.174     -11.206     -61.848
  H       77.984      -2.149     -62.913
  H       78.552     -10.905     -61.287
  H       77.562      -3.339     -61.662
  P       80.351      -3.289     -66.013
  C       81.692      -5.198     -67.078
  O       81.591      -4.305     -65.986
  O       81.004      -1.981     -66.671
  O       79.137      -3.742     -66.750
  H       81.081      -2.098     -67.635
  H       82.651      -5.718     -67.018
  H       81.644      -4.654     -68.025
  H       80.887      -5.936     -67.032
  H       77.823      -0.647     -57.140
  H       78.595      -1.641     -58.351
  H       76.921      -1.915     -57.934

 3  4  5  6  7  8  9  10  11  12  13  21  23  27  28  29  30  32 0
 6-311+G(2d,p)
 ****
 34  35 0
 6-311+G(2d,p)
 ****
 1  2  14  15  16  17  18  19  20  22  24  25  26 0
 3-21G
 ****
 31  33  36  37  38  39  40  41  42  43  44  45  46 0
 3-21G
 ****


