%nproc=1
%NoSave
%Mem=1900MB
#P OB98/GEN NMR

erre ene a

0 1
  C     -896.040     530.626    1147.803
  O     -896.650     529.543    1147.129
  P     -897.800     529.868    1146.069
  C     -895.870     530.417    1144.345
  O     -897.110     529.794    1144.606
  C     -895.060     529.568    1143.388
  O     -894.410     528.476    1144.084
  C     -895.850     528.916    1142.267
  O     -896.190     529.853    1141.234
  C     -894.890     527.794    1141.805
  O     -893.870     528.331    1140.951
  C     -894.280     527.364    1143.162
  N     -894.870     526.129    1143.681
  C     -894.360     524.945    1143.249
  O     -893.450     524.869    1142.417
  N     -894.940     523.810    1143.762
  C     -896.000     523.738    1144.586
  O     -896.530     522.699    1144.995
  C     -896.540     525.044    1145.036
  C     -895.970     526.192    1144.583
  O     -898.020     531.440    1146.306
  O     -899.020     529.024    1146.242
  H     -897.210     531.874    1146.654
  H     -893.670     529.222    1141.310
  H     -894.570     522.928    1143.459
  H     -897.380     525.054    1145.717
  H     -896.360     527.159    1144.888
  H     -893.210     527.172    1143.037
  H     -895.410     526.986    1141.277
  H     -896.790     528.457    1142.671
  H     -894.250     530.220    1142.966
  H     -895.320     530.534    1145.299
  H     -896.060     531.408    1143.922
  P     -897.390     529.431    1140.223
  C     -899.350     529.766    1141.933
  O     -898.690     530.178    1140.753
  O     -897.620     527.889    1140.671
  O     -897.070     529.630    1138.772
  H     -897.590     527.770    1141.623
  H     -899.940     530.600    1142.335
  H     -898.630     529.483    1142.722
  H     -900.000     528.917    1141.709
  H     -895.295     530.254    1148.475
  H     -896.781     531.165    1148.355
  H     -895.582     531.278    1147.089

 3  4  5  6  7  8  9  10  11  12  13  24  28  29  30  31  32 0
 6-311+G(2d,p)
 ****
 33  34 0
 6-311+G(2d,p)
 ****
 1  2  14  15  16  17  18  19  20  21  22  23  25  26  27 0
 3-21G
 ****
 35  36  37  38  39  40  41  42  43  44  45 0
 3-21G
 ****


