%nproc=1
%NoSave
%Mem=1900MB
#P OB98/GEN NMR

erre ene a

0 1
  C      -88.717       2.369      14.590
  O      -87.524       3.115      14.704
  H      -88.470       1.305      14.644
  H      -89.197       2.567      13.629
  H      -89.405       2.609      15.406
  P      -87.615       4.712      14.790
  C      -87.221       4.854      12.248
  O      -88.053       5.231      13.338
  C      -87.152       5.990      11.231
  O      -86.286       5.627      10.133
  C      -88.496       6.337      10.602
  O      -89.298       7.073      11.504
  C      -88.038       7.101       9.370
  O      -87.675       8.450       9.703
  C      -86.788       6.291       8.951
  N      -87.066       5.329       7.883
  C      -86.415       5.550       6.674
  O      -85.648       6.490       6.483
  N      -86.713       4.669       5.668
  C      -87.645       3.675       5.729
  O      -88.037       3.055       4.746
  C      -88.245       3.443       7.051
  C      -87.946       4.277       8.048
  O      -86.427       5.399      15.375
  O      -88.930       4.966      15.670
  H      -88.668       5.181      16.585
  H      -87.289       8.840       8.895
  H      -86.282       4.848       4.773
  H      -88.942       2.621       7.158
  H      -88.399       4.144       9.024
  H      -85.994       6.964       8.604
  H      -88.813       7.159       8.604
  H      -89.009       5.424      10.282
  H      -86.717       6.867      11.727
  H      -87.650       3.965      11.773
  H      -86.223       4.610      12.627
  P      -90.827       6.680      11.761
  C      -91.767       8.871      10.823
  O      -91.728       7.458      10.688
  O      -91.288       6.822      13.174
  O      -90.929       5.156      11.279
  H      -91.314       4.618      11.998
  H      -92.393       9.285      10.061
  H      -90.777       9.266      10.725
  H      -92.160       9.127      11.785

 6  7  8  9  10  11  12  13  14  15  16  27  31  32  33  34  35 0
 6-311+G(2d,p)
 ****
 36  37 0
 6-311+G(2d,p)
 ****
 1  2  3  4  5  17  18  19  20  21  22  23  24  25 0
 3-21G
 ****
 26  28  29  30  38  39  40  41  42  43  44  45 0
 3-21G
 ****


