%nproc=1
%NoSave
%Mem=1900MB
#P OB98/GEN NMR

erre ene a

0 1
  C       21.091     -31.018    -177.408
  O       21.094     -29.855    -178.208
  H       21.308     -31.882    -178.040
  H       20.105     -31.159    -176.955
  H       21.853     -30.951    -176.625
  P       20.950     -28.442    -177.460
  C       18.992     -27.122    -176.381
  O       19.382     -28.221    -177.192
  C       17.542     -26.731    -176.676
  O       17.493     -26.044    -177.955
  C       16.585     -27.926    -176.748
  O       15.337     -27.549    -176.159
  C       16.394     -28.146    -178.239
  O       15.161     -28.796    -178.545
  C       16.524     -26.718    -178.781
  N       16.914     -26.710    -180.188
  C       16.071     -26.028    -181.071
  O       15.050     -25.474    -180.652
  N       16.367     -26.035    -182.412
  C       17.366     -26.736    -182.844
  N       17.592     -26.728    -184.189
  C       18.246     -27.528    -181.958
  C       17.967     -27.463    -180.655
  O       21.279     -27.379    -178.609
  O       21.815     -28.267    -176.255
  H       15.025     -28.757    -179.517
  H       21.706     -26.581    -178.242
  H       19.051     -28.118    -182.370
  H       18.550     -28.019    -179.930
  H       15.569     -26.178    -178.680
  H       17.208     -28.772    -178.622
  H       16.970     -28.817    -176.244
  H       17.215     -26.013    -175.917
  H       16.958     -26.186    -184.763
  H       19.641     -26.268    -176.603
  H       18.313     -27.271    -184.638
  H       19.108     -27.389    -175.325
  P       15.059     -28.068    -174.666
  C       13.995     -30.156    -173.547
  O       14.311     -29.483    -174.759
  O       13.922     -27.071    -174.136
  O       16.267     -28.044    -173.787
  H       14.297     -26.462    -173.471
  H       13.502     -31.079    -173.770
  H       13.350     -29.541    -172.955
  H       14.895     -30.355    -173.004

 6  7  8  9  10  11  12  13  14  15  16  26  30  31  32  33  35 0
 6-311+G(2d,p)
 ****
 37  38 0
 6-311+G(2d,p)
 ****
 1  2  3  4  5  17  18  19  20  21  22  23  24  25 0
 3-21G
 ****
 27  28  29  34  36  39  40  41  42  43  44  45  46 0
 3-21G
 ****


