%nproc=1
%NoSave
%Mem=1900MB
#P OB98/GEN NMR

erre ene a

0 1
  C      196.098     457.492     122.845
  O      197.104     458.472     123.112
  P      198.524     458.362     122.382
  C      198.298     460.607     121.113
  O      198.482     459.198     121.015
  C      197.978     461.190     119.733
  O      196.788     460.589     119.166
  C      197.668     462.684     119.779
  O      198.749     463.543     120.070
  C      196.937     462.902     118.466
  O      197.844     463.070     117.378
  C      196.153     461.574     118.323
  N      194.734     461.719     118.649
  C      193.842     461.434     117.622
  O      194.191     461.124     116.487
  N      192.514     461.555     117.937
  C      192.007     461.958     119.138
  O      190.810     462.072     119.358
  C      193.004     462.268     120.176
  C      194.301     462.134     119.891
  O      199.094     456.990     122.271
  O      199.467     459.280     123.312
  H      198.319     463.910     117.521
  H      200.327     458.829     123.397
  H      191.851     461.345     117.205
  H      192.640     462.595     121.142
  H      195.050     462.358     120.644
  H      196.225     461.199     117.293
  H      196.307     463.798     118.503
  H      196.936     462.849     120.582
  H      198.807     460.975     119.061
  H      199.198     461.068     121.521
  H      197.492     460.809     121.830
  P      198.963     464.236     121.501
  C      201.175     463.037     122.133
  O      199.809     463.233     122.423
  O      197.782     464.907     122.122
  O      200.059     465.358     121.148
  H      199.905     466.132     121.719
  H      201.586     462.320     122.847
  H      201.725     463.977     122.228
  H      201.295     462.634     121.123
  H      195.220     457.718     123.413
  H      196.461     456.524     123.120
  H      195.860     457.501     121.802

 3  4  5  6  7  8  9  10  11  12  13  23  28  29  30  31  32 0
 6-311+G(2d,p)
 ****
 33  34 0
 6-311+G(2d,p)
 ****
 1  2  14  15  16  17  18  19  20  21  22  24  25  26  27 0
 3-21G
 ****
 35  36  37  38  39  40  41  42  43  44  45 0
 3-21G
 ****


