%nproc=1
%NoSave
%Mem=1900MB
#P OB98/GEN NMR

erre ene a

0 1
  C     -476.892    -946.650       7.567
  O     -476.120    -946.140       6.468
  P     -476.241    -944.581       6.134
  C     -476.531    -944.872       3.566
  O     -475.710    -944.336       4.629
  C     -475.696    -945.152       2.308
  O     -474.976    -943.940       1.943
  C     -474.602    -946.220       2.502
  O     -474.937    -947.585       2.251
  C     -473.599    -945.811       1.414
  O     -474.012    -946.362       0.128
  C     -473.691    -944.299       1.384
  N     -470.211    -940.530       1.266
  C     -471.153    -940.934       0.370
  N     -472.037    -941.948       0.493
  C     -471.908    -942.556       1.662
  C     -471.020    -942.268       2.688
  C     -470.129    -941.194       2.449
  N     -469.179    -940.796       3.367
  N     -471.179    -943.120       3.750
  C     -472.142    -943.946       3.366
  N     -472.631    -943.643       2.125
  O     -475.705    -943.635       7.140
  O     -477.839    -944.385       5.956
  H     -474.898    -945.982      -0.048
  H     -478.086    -943.511       6.321
  H     -471.195    -940.371      -0.561
  H     -472.514    -944.757       3.973
  H     -473.667    -943.894       0.361
  H     -472.590    -946.205       1.607
  H     -474.122    -946.137       3.483
  H     -476.346    -945.424       1.491
  H     -477.327    -944.151       3.322
  H     -468.559    -940.045       3.100
  H     -469.074    -941.296       4.221
  H     -477.024    -945.769       3.953
  P     -474.402    -948.770       3.212
  C     -473.875    -950.678       1.485
  O     -474.756    -950.129       2.429
  O     -474.883    -948.717       4.618
  O     -472.814    -948.651       3.032
  H     -472.489    -948.905       2.156
  H     -474.171    -951.695       1.249
  H     -472.854    -950.706       1.899
  H     -473.876    -950.071       0.570
  H     -476.712    -947.700       7.672
  H     -477.932    -946.483       7.380
  H     -476.606    -946.147       8.467

 3  4  5  6  7  8  9  10  11  12  22  25  29  30  31  32 0
 6-311+G(2d,p)
 ****
 33  36  37 0
 6-311+G(2d,p)
 ****
 1  2  13  14  15  16  17  18  19  20  21  23  24  26 0
 3-21G
 ****
 27  28  34  35  38  39  40  41  42  43  44  45  46  47  48 0
 3-21G
 ****


