%nproc=1
%NoSave
%Mem=1900MB
#P OB98/GEN NMR

erre ene a

0 1
  C     -202.570     311.424    -213.405
  O     -203.160     310.146    -213.208
  P     -202.998     309.364    -211.815
  C     -205.526     309.139    -211.400
  O     -204.306     309.740    -210.971
  C     -206.623     310.200    -211.493
  O     -206.288     311.115    -212.564
  C     -208.022     309.677    -211.832
  O     -208.765     309.203    -210.723
  C     -208.671     310.947    -212.370
  O     -209.071     311.792    -211.271
  C     -207.526     311.595    -213.147
  N     -209.000     313.165    -217.792
  C     -209.086     313.743    -216.567
  N     -208.686     313.251    -215.375
  C     -208.105     312.049    -215.530
  C     -207.940     311.340    -216.711
  C     -208.418     311.945    -217.885
  N     -208.302     311.369    -219.132
  N     -207.314     310.129    -216.464
  C     -207.098     310.124    -215.170
  N     -207.551     311.260    -214.563
  O     -201.691     309.588    -211.127
  O     -203.246     307.830    -212.194
  H     -209.834     311.358    -210.843
  H     -202.912     307.252    -211.479
  H     -209.548     314.729    -216.546
  H     -206.620     309.321    -214.629
  H     -207.521     312.688    -213.062
  H     -209.572     310.748    -212.961
  H     -207.983     308.927    -212.635
  H     -206.636     310.766    -210.553
  H     -205.812     308.383    -210.661
  H     -208.553     311.929    -219.923
  H     -207.727     310.542    -219.220
  H     -205.374     308.642    -212.363
  P     -208.929     307.612    -210.579
  C     -207.803     307.376    -208.223
  O     -207.740     307.136    -209.618
  O     -209.043     306.876    -211.870
  O     -210.228     307.478    -209.649
  H     -210.120     307.790    -208.738
  H     -206.986     306.838    -207.742
  H     -208.753     307.019    -207.809
  H     -207.690     308.448    -208.027
  H     -202.793     311.772    -214.392
  H     -201.509     311.350    -213.284
  H     -202.963     312.113    -212.687

 3  4  5  6  7  8  9  10  11  12  22  25  29  30  31  32 0
 6-311+G(2d,p)
 ****
 33  36  37 0
 6-311+G(2d,p)
 ****
 1  2  13  14  15  16  17  18  19  20  21  23  24  26 0
 3-21G
 ****
 27  28  34  35  38  39  40  41  42  43  44  45  46  47  48 0
 3-21G
 ****


