%nproc=1
%NoSave
%Mem=1900MB
#P OB98/GEN NMR

erre ene a

0 1
  C     -470.335     156.643     594.593
  O     -469.398     157.385     593.836
  H     -471.322     157.091     594.464
  H     -470.072     156.670     595.654
  H     -470.372     155.608     594.244
  P     -467.852     156.974     593.899
  C     -468.204     155.330     591.944
  O     -467.456     156.434     592.438
  C     -468.265     155.387     590.408
  O     -469.087     156.518     590.039
  C     -466.873     155.569     589.767
  O     -466.585     154.590     588.774
  C     -466.876     157.033     589.346
  O     -466.021     157.334     588.264
  C     -468.363     157.316     589.083
  N     -468.725     158.723     589.202
  C     -468.540     159.535     588.082
  O     -468.118     159.145     586.993
  N     -468.881     160.859     588.238
  C     -469.358     161.431     589.379
  O     -469.656     162.621     589.462
  C     -469.514     160.530     590.535
  C     -469.190     159.239     590.397
  O     -467.471     156.069     595.028
  O     -467.083     158.376     593.981
  H     -465.137     156.958     588.465
  H     -466.800     158.536     594.902
  H     -468.761     161.446     587.434
  H     -469.883     160.951     591.460
  H     -469.295     158.549     591.227
  H     -468.641     156.983     588.078
  H     -466.545     157.641     590.196
  H     -466.078     155.416     590.515
  H     -468.762     154.477     590.040
  H     -469.211     155.391     592.359
  H     -467.738     154.391     592.257
  P     -465.299     153.636     588.791
  C     -466.746     151.485     589.203
  O     -465.779     152.156     588.405
  O     -464.404     153.774     589.982
  O     -464.464     154.116     587.492
  H     -463.525     153.988     587.709
  H     -466.938     150.516     588.791
  H     -467.653     152.053     589.217
  H     -466.375     151.381     590.201

 6  7  8  9  10  11  12  13  14  15  16  26  31  32  33  34  35 0
 6-311+G(2d,p)
 ****
 36  37 0
 6-311+G(2d,p)
 ****
 1  2  3  4  5  17  18  19  20  21  22  23  24  25 0
 3-21G
 ****
 27  28  29  30  38  39  40  41  42  43  44  45 0
 3-21G
 ****


