%nproc=1
%NoSave
%Mem=1900MB
#P OB98/GEN NMR

erre ene a

0 1
  C      110.793    -205.366    -161.340
  O      111.319    -206.607    -160.898
  P      112.731    -207.071    -161.509
  C      114.014    -205.730    -159.688
  O      113.801    -205.952    -161.077
  C      115.176    -206.576    -159.161
  O      116.308    -206.427    -160.056
  C      115.638    -206.197    -157.752
  O      116.004    -207.400    -157.073
  C      116.885    -205.370    -157.996
  O      117.759    -205.384    -156.869
  C      117.447    -206.042    -159.261
  N      118.341    -205.159    -160.002
  C      119.666    -205.080    -159.553
  O      120.005    -205.674    -158.530
  N      120.552    -204.289    -160.241
  C      120.132    -203.558    -161.226
  N      121.049    -202.796    -161.881
  C      118.718    -203.522    -161.654
  C      117.893    -204.352    -161.020
  O      112.544    -206.817    -163.077
  O      113.107    -208.483    -161.205
  H      117.912    -206.321    -156.611
  H      113.050    -207.465    -163.599
  H      118.411    -202.867    -162.458
  H      116.845    -204.411    -161.282
  H      117.996    -206.955    -158.999
  H      116.608    -204.330    -158.206
  H      114.867    -205.672    -157.182
  H      114.874    -207.630    -159.192
  H      122.007    -202.829    -161.559
  H      113.111    -206.015    -159.140
  H      120.810    -202.195    -162.659
  H      114.198    -204.668    -159.514
  P      115.931    -207.403    -155.471
  C      113.486    -208.187    -155.482
  O      114.385    -207.154    -155.126
  O      116.572    -205.973    -155.121
  O      116.624    -208.497    -154.732
  H      116.645    -205.874    -154.155
  H      112.499    -207.949    -155.069
  H      113.818    -209.142    -155.069
  H      113.404    -208.253    -156.569
  H      109.856    -205.183    -160.856
  H      110.647    -205.398    -162.400
  H      111.479    -204.581    -161.098

 3  4  5  6  7  8  9  10  11  12  13  21  23  27  28  29  30  32 0
 6-311+G(2d,p)
 ****
 34  35 0
 6-311+G(2d,p)
 ****
 1  2  14  15  16  17  18  19  20  22  24  25  26 0
 3-21G
 ****
 31  33  36  37  38  39  40  41  42  43  44  45  46 0
 3-21G
 ****


