%nproc=1
%NoSave
%Mem=1900MB
#P OB98/GEN NMR

erre ene a

0 1
  C      179.201     156.477    -148.560
  O      180.062     155.470    -148.071
  H      178.186     156.272    -148.212
  H      179.203     156.484    -149.653
  H      179.514     157.454    -148.181
  P      181.591     155.525    -148.553
  C      182.239     153.615    -150.191
  O      181.638     154.892    -150.025
  C      181.424     152.566    -149.440
  O      180.012     152.784    -149.673
  C      181.691     151.135    -149.885
  O      182.885     150.604    -149.334
  C      180.449     150.435    -149.362
  O      180.590     150.065    -147.983
  C      179.357     151.505    -149.543
  N      178.496     151.210    -150.685
  C      177.501     150.262    -150.461
  O      177.335     149.698    -149.381
  N      176.718     149.954    -151.539
  C      176.864     150.449    -152.801
  O      176.161     150.086    -153.738
  C      177.941     151.434    -152.983
  C      178.700     151.762    -151.934
  O      182.302     154.422    -147.640
  O      182.242     156.863    -148.426
  H      182.843     154.858    -146.957
  H      181.373     149.482    -147.939
  H      175.990     149.270    -151.397
  H      178.086     151.847    -153.973
  H      179.509     152.477    -152.044
  H      178.727     151.565    -148.648
  H      180.251     149.524    -149.921
  H      181.699     151.074    -150.979
  H      181.617     152.679    -148.365
  H      183.256     153.630    -149.786
  H      182.290     153.380    -151.259
  P      183.502     149.289    -150.018
  C      182.896     147.129    -148.642
  O      182.521     148.087    -149.618
  O      184.802     149.072    -149.114
  O      183.764     149.456    -151.477
  H      184.686     149.436    -148.218
  H      182.108     146.415    -148.521
  H      183.077     147.622    -147.710
  H      183.786     146.627    -148.959

 6  7  8  9  10  11  12  13  14  15  16  27  31  32  33  34  35 0
 6-311+G(2d,p)
 ****
 36  37 0
 6-311+G(2d,p)
 ****
 1  2  3  4  5  17  18  19  20  21  22  23  24  25 0
 3-21G
 ****
 26  28  29  30  38  39  40  41  42  43  44  45 0
 3-21G
 ****


