%nproc=1
%NoSave
%Mem=1900MB
#P OB98/GEN NMR

erre ene a

0 1
  C       86.984     401.019     432.654
  O       88.305     401.475     432.841
  H       86.805     400.866     431.584
  H       86.261     401.749     433.026
  H       86.843     400.057     433.167
  P       88.771     401.914     434.312
  C       88.858     404.468     433.935
  O       88.172     403.382     434.558
  C       88.357     405.806     434.462
  O       88.540     405.838     435.904
  C       89.093     407.017     433.856
  O       88.144     408.083     433.671
  C       90.084     407.376     434.945
  O       90.478     408.735     434.853
  C       89.315     407.008     436.229
  N       90.240     406.770     437.338
  C       90.631     407.892     438.079
  O       90.199     409.022     437.792
  N       91.554     407.744     439.086
  C       92.087     406.579     439.290
  N       93.026     406.496     440.283
  C       91.722     405.364     438.522
  C       90.801     405.532     437.570
  O       90.233     401.778     434.603
  O       87.892     400.988     435.281
  H       89.699     409.298     435.013
  H       88.371     400.160     435.476
  H       92.201     404.420     438.734
  H       90.482     404.709     436.946
  H       88.617     407.811     436.507
  H       90.979     406.743     434.849
  H       89.584     406.794     432.908
  H       87.274     405.878     434.274
  H       93.263     407.363     440.759
  H       88.671     404.397     432.847
  H       93.541     405.663     440.496
  H       89.939     404.368     434.108
  P       87.313     408.206     432.296
  C       89.005     408.954     430.533
  O       88.283     407.845     431.065
  O       86.556     409.484     432.150
  O       86.310     406.947     432.347
  H       85.490     407.173     431.867
  H       89.621     408.623     429.723
  H       89.620     409.379     431.298
  H       88.316     409.692     430.179

 6  7  8  9  10  11  12  13  14  15  16  26  30  31  32  33  35 0
 6-311+G(2d,p)
 ****
 37  38 0
 6-311+G(2d,p)
 ****
 1  2  3  4  5  17  18  19  20  21  22  23  24  25 0
 3-21G
 ****
 27  28  29  34  36  39  40  41  42  43  44  45  46 0
 3-21G
 ****


