%nproc=1
%NoSave
%Mem=1900MB
#P OB98/GEN NMR

erre ene a

0 1
  C      274.654      -1.832      76.863
  O      273.710      -2.892      76.946
  P      273.571      -3.673      78.338
  C      275.479      -5.288      77.639
  O      274.985      -4.386      78.621
  C      276.919      -5.704      77.947
  O      277.741      -4.513      78.064
  C      277.086      -6.503      79.245
  O      278.163      -7.423      79.042
  C      277.524      -5.441      80.244
  O      278.187      -6.002      81.374
  C      278.403      -4.569      79.349
  N      281.515      -1.475      81.972
  C      281.652      -2.759      81.575
  N      280.776      -3.515      80.878
  C      279.665      -2.817      80.593
  C      279.373      -1.511      80.960
  C      280.364      -0.823      81.684
  N      280.233       0.487      82.079
  N      278.120      -1.150      80.508
  C      277.665      -2.216      79.880
  N      278.574      -3.236      79.885
  O      272.608      -4.896      77.958
  O      273.018      -2.876      79.468
  H      278.744      -5.308      81.777
  H      271.740      -4.786      78.395
  H      282.588      -3.239      81.851
  H      276.694      -2.296      79.410
  H      279.397      -5.004      79.197
  H      276.648      -4.889      80.605
  H      276.188      -7.033      79.566
  H      277.303      -6.278      77.092
  H      275.458      -4.793      76.663
  H      281.038       0.953      82.473
  H      279.465       1.037      81.709
  H      274.834      -6.171      77.594
  P      278.017      -8.871      79.715
  C      279.900      -8.341      81.423
  O      278.556      -8.739      81.216
  O      279.146      -9.738      78.979
  O      276.665      -9.482      79.554
  H      278.890     -10.679      78.961
  H      279.954      -7.749      82.341
  H      280.275      -7.734      80.589
  H      280.525      -9.229      81.530
  H      274.632      -1.411      75.880
  H      275.634      -2.210      77.067
  H      274.407      -1.077      77.580

 3  4  5  6  7  8  9  10  11  12  22  25  29  30  31  32 0
 6-311+G(2d,p)
 ****
 33  36  37 0
 6-311+G(2d,p)
 ****
 1  2  13  14  15  16  17  18  19  20  21  23  24  26 0
 3-21G
 ****
 27  28  34  35  38  39  40  41  42  43  44  45  46  47  48 0
 3-21G
 ****


