%nproc=1
%NoSave
%Mem=1900MB
#P OB98/GEN NMR

erre ene a

0 1
  C      -55.561    -124.532     101.969
  O      -55.757    -123.302     102.628
  H      -54.873    -124.371     101.133
  H      -56.506    -124.905     101.566
  H      -55.124    -125.268     102.646
  P      -56.764    -123.232     103.877
  C      -55.171    -124.427     105.496
  O      -55.819    -123.201     105.181
  C      -54.947    -124.559     107.003
  O      -54.621    -125.938     107.327
  C      -53.808    -123.677     107.539
  O      -54.239    -122.992     108.717
  C      -52.722    -124.678     107.899
  O      -51.820    -124.190     108.890
  C      -53.569    -125.889     108.306
  N      -52.785    -127.116     108.345
  C      -52.589    -127.685     109.607
  O      -53.070    -127.151     110.608
  N      -51.808    -128.806     109.715
  C      -51.234    -129.292     108.659
  N      -50.449    -130.388     108.838
  C      -51.393    -128.709     107.310
  C      -52.177    -127.635     107.226
  O      -57.820    -124.284     103.886
  O      -57.358    -121.746     103.841
  H      -51.324    -123.430     108.512
  H      -58.214    -121.732     104.330
  H      -50.888    -129.150     106.463
  H      -52.352    -127.138     106.278
  H      -54.027    -125.735     109.292
  H      -52.136    -124.917     107.001
  H      -53.453    -122.946     106.812
  H      -55.892    -124.339     107.516
  H      -50.362    -130.751     109.781
  H      -54.215    -124.464     104.963
  H      -49.935    -130.839     108.098
  H      -55.806    -125.250     105.157
  P      -54.025    -121.401     108.731
  C      -56.160    -120.593     107.494
  O      -55.472    -120.707     108.733
  O      -53.448    -121.095     107.270
  O      -53.092    -120.936     109.799
  H      -52.509    -120.836     107.331
  H      -57.103    -120.113     107.653
  H      -56.320    -121.568     107.084
  H      -55.574    -120.012     106.813

 6  7  8  9  10  11  12  13  14  15  16  26  30  31  32  33  35 0
 6-311+G(2d,p)
 ****
 37  38 0
 6-311+G(2d,p)
 ****
 1  2  3  4  5  17  18  19  20  21  22  23  24  25 0
 3-21G
 ****
 27  28  29  34  36  39  40  41  42  43  44  45  46 0
 3-21G
 ****


