%nproc=1
%NoSave
%Mem=1900MB
#P OB98/GEN NMR

erre ene a

0 1
  C      303.699    -189.622     -24.667
  O      303.664    -189.474     -23.259
  P      302.415    -188.787     -22.536
  C      302.179    -189.997     -20.218
  O      302.629    -188.883     -20.959
  C      302.696    -189.877     -18.778
  O      304.117    -190.133     -18.738
  C      302.451    -188.482     -18.207
  O      301.240    -188.451     -17.469
  C      303.686    -188.253     -17.355
  O      303.543    -188.897     -16.076
  C      304.779    -188.959     -18.193
  N      305.385    -188.216     -19.314
  C      306.612    -188.624     -19.825
  O      307.232    -189.605     -19.417
  N      307.134    -187.839     -20.825
  C      306.529    -186.745     -21.374
  O      307.100    -185.923     -22.083
  C      305.132    -186.532     -20.984
  C      304.642    -187.249     -19.975
  O      301.226    -189.821     -22.811
  O      302.080    -187.410     -23.007
  H      304.286    -188.600     -15.521
  H      300.678    -189.523     -23.563
  H      308.086    -188.050     -21.103
  H      304.569    -185.765     -21.497
  H      303.619    -187.082     -19.644
  H      305.599    -189.307     -17.555
  H      303.829    -187.195     -17.148
  H      302.438    -187.741     -19.014
  H      302.200    -190.634     -18.159
  H      302.537    -190.923     -20.678
  H      301.084    -190.031     -20.223
  P      300.462    -187.067     -17.282
  C      298.226    -188.319     -17.320
  O      299.070    -187.452     -16.588
  O      300.355    -186.219     -18.507
  O      301.289    -186.335     -16.122
  H      301.920    -185.695     -16.518
  H      297.410    -188.646     -16.672
  H      298.781    -189.196     -17.665
  H      297.807    -187.785     -18.177
  H      304.612    -190.102     -24.953
  H      303.643    -188.658     -25.128
  H      302.869    -190.218     -24.984

 3  4  5  6  7  8  9  10  11  12  13  23  28  29  30  31  32 0
 6-311+G(2d,p)
 ****
 33  34 0
 6-311+G(2d,p)
 ****
 1  2  14  15  16  17  18  19  20  21  22  24  25  26  27 0
 3-21G
 ****
 35  36  37  38  39  40  41  42  43  44  45 0
 3-21G
 ****


