%nproc=1
%NoSave
%Mem=1900MB
#P OB98/GEN NMR

erre ene a

0 1
  C      250.324    -291.794    -358.739
  O      251.702    -291.515    -359.012
  P      252.507    -292.535    -359.951
  C      251.509    -291.802    -362.240
  O      252.657    -291.883    -361.410
  C      251.915    -291.741    -363.714
  O      250.774    -291.815    -364.590
  C      252.632    -290.453    -364.097
  O      254.010    -290.501    -363.755
  C      252.462    -290.458    -365.607
  O      253.432    -291.340    -366.207
  C      251.052    -291.032    -365.774
  N      247.275    -289.272    -368.755
  C      248.147    -290.290    -368.914
  N      249.135    -290.686    -368.086
  C      249.169    -289.918    -366.984
  C      248.346    -288.844    -366.686
  C      247.357    -288.523    -367.631
  N      246.470    -287.486    -367.465
  N      248.687    -288.289    -365.468
  C      249.687    -289.026    -365.033
  N      250.023    -290.017    -365.918
  O      251.453    -293.717    -360.185
  O      253.772    -293.046    -359.346
  H      253.375    -291.215    -367.169
  H      251.918    -294.569    -360.247
  H      248.039    -290.868    -369.827
  H      250.197    -288.883    -364.090
  H      250.970    -291.701    -366.640
  H      252.617    -289.470    -366.052
  H      252.128    -289.580    -363.664
  H      252.569    -292.599    -363.923
  H      250.913    -290.921    -361.978
  H      245.770    -287.333    -368.171
  H      246.513    -286.937    -366.614
  H      250.868    -292.672    -362.049
  P      254.646    -289.192    -363.078
  C      253.050    -289.111    -361.031
  O      254.363    -289.336    -361.509
  O      253.654    -288.026    -363.551
  O      256.058    -288.920    -363.472
  H      254.140    -287.183    -363.628
  H      252.967    -289.538    -360.027
  H      252.308    -289.591    -361.676
  H      252.853    -288.038    -360.976
  H      249.925    -291.031    -358.104
  H      250.242    -292.743    -358.252
  H      249.776    -291.816    -359.658

 3  4  5  6  7  8  9  10  11  12  22  25  29  30  31  32 0
 6-311+G(2d,p)
 ****
 33  36  37 0
 6-311+G(2d,p)
 ****
 1  2  13  14  15  16  17  18  19  20  21  23  24  26 0
 3-21G
 ****
 27  28  34  35  38  39  40  41  42  43  44  45  46  47  48 0
 3-21G
 ****


