%nproc=1
%NoSave
%Mem=1900MB
#P OB98/GEN NMR

erre ene a

0 1
  C      -99.609     263.053     167.187
  O     -100.620     263.487     166.295
  P     -101.220     262.429     165.249
  C     -100.503     264.018     163.278
  O     -101.518     263.239     163.892
  C     -101.130     265.100     162.391
  O     -100.070     265.950     161.864
  C     -101.922     264.555     161.188
  O     -103.030     265.442     160.971
  C     -100.919     264.669     160.047
  O     -101.539     264.694     158.773
  C     -100.198     265.967     160.430
  N      -98.885     266.111     159.799
  C      -98.804     266.841     158.618
  O      -99.777     267.356     158.057
  N      -97.550     266.948     158.066
  C      -96.414     266.346     158.528
  O      -95.318     266.464     157.985
  C      -96.567     265.551     159.753
  C      -97.773     265.481     160.330
  O     -102.670     262.171     165.870
  O     -100.380     261.207     165.076
  H     -103.060     262.969     166.274
  H     -102.115     265.481     158.731
  H      -97.463     267.502     157.230
  H      -95.689     265.044     160.151
  H      -97.911     264.894     161.233
  H     -100.828     266.836     160.170
  H     -100.237     263.809     160.076
  H     -102.286     263.537     161.348
  H     -101.777     265.731     163.019
  H      -99.873     263.372     162.661
  H      -99.874     264.466     164.053
  P     -104.477     264.995     161.519
  C     -105.404     263.983     159.284
  O     -105.478     264.993     160.274
  O     -104.898     266.326     162.318
  O     -104.472     263.776     162.385
  H     -104.768     267.138     161.799
  H     -106.344     263.956     158.726
  H     -105.226     262.997     159.722
  H     -104.593     264.223     158.588
  H      -99.315     263.867     167.816
  H      -98.763     262.710     166.628
  H      -99.985     262.254     167.791

 3  4  5  6  7  8  9  10  11  12  13  24  28  29  30  31  32 0
 6-311+G(2d,p)
 ****
 33  34 0
 6-311+G(2d,p)
 ****
 1  2  14  15  16  17  18  19  20  21  22  23  25  26  27 0
 3-21G
 ****
 35  36  37  38  39  40  41  42  43  44  45 0
 3-21G
 ****


