%nproc=1
%NoSave
%Mem=1900MB
#P OB98/GEN NMR

erre ene a

0 1
  C     -135.102     -31.726    -181.273
  O     -136.364     -31.094    -181.349
  P     -137.678     -31.850    -180.829
  C     -137.113     -31.181    -178.413
  O     -137.456     -32.249    -179.291
  C     -137.752     -31.394    -177.042
  O     -139.189     -31.256    -177.118
  C     -137.518     -32.777    -176.458
  O     -136.187     -32.945    -176.003
  C     -138.583     -32.816    -175.366
  O     -138.134     -32.119    -174.194
  C     -139.743     -32.050    -176.037
  N     -140.789     -32.938    -176.513
  C     -142.075     -32.698    -176.013
  O     -142.258     -31.837    -175.157
  N     -143.116     -33.455    -176.492
  C     -142.879     -34.442    -177.299
  N     -143.953     -35.114    -177.790
  C     -141.516     -34.829    -177.725
  C     -140.534     -34.025    -177.316
  O     -138.161     -32.962    -181.700
  O     -138.781     -30.688    -180.735
  H     -139.590     -30.985    -181.199
  H     -138.920     -31.979    -173.635
  H     -141.366     -35.697    -178.345
  H     -139.501     -34.220    -177.597
  H     -140.178     -31.332    -175.334
  H     -138.829     -33.836    -175.062
  H     -137.744     -33.540    -177.213
  H     -137.366     -30.622    -176.363
  H     -144.871     -34.811    -177.490
  H     -137.475     -30.241    -178.844
  H     -143.911     -35.662    -178.645
  H     -136.024     -31.124    -178.324
  P     -135.658     -34.453    -175.841
  C     -134.489     -34.969    -178.090
  O     -135.650     -35.117    -177.296
  O     -136.872     -35.188    -175.093
  O     -134.388     -34.586    -175.070
  H     -136.520     -35.847    -174.467
  H     -134.495     -35.740    -178.868
  H     -133.579     -35.076    -177.495
  H     -134.499     -33.985    -178.573
  H     -134.351     -31.072    -181.664
  H     -135.121     -32.630    -181.845
  H     -134.879     -31.955    -180.252

 3  4  5  6  7  8  9  10  11  12  13  24  27  28  29  30  32 0
 6-311+G(2d,p)
 ****
 34  35 0
 6-311+G(2d,p)
 ****
 1  2  14  15  16  17  18  19  20  21  22  23  25  26 0
 3-21G
 ****
 31  33  36  37  38  39  40  41  42  43  44  45  46 0
 3-21G
 ****


