%nproc=1
%NoSave
%Mem=1900MB
#P OB98/GEN NMR

erre ene a

0 1
  C      -55.628     424.516     -92.553
  O      -55.028     423.308     -92.981
  P      -55.363     422.800     -94.471
  C      -57.479     421.632     -95.419
  O      -56.953     422.621     -94.545
  C      -59.008     421.686     -95.470
  O      -59.422     422.976     -95.973
  C      -59.646     420.608     -96.350
  O      -60.858     420.179     -95.723
  C      -59.991     421.352     -97.626
  O      -61.052     420.723     -98.340
  C      -60.322     422.750     -97.074
  N      -60.201     423.792     -98.093
  C      -60.875     424.991     -97.856
  O      -61.595     425.106     -96.870
  N      -60.766     426.003     -98.776
  C      -60.117     425.800     -99.884
  N      -60.030     426.844    -100.757
  C      -59.495     424.507    -100.232
  C      -59.560     423.561     -99.286
  O      -54.817     421.296     -94.466
  O      -54.746     423.623     -95.560
  H      -61.841     420.701     -97.756
  H      -54.495     421.040     -95.350
  H      -59.006     424.373    -101.182
  H      -59.110     422.586     -99.441
  H      -61.347     422.773     -96.682
  H      -59.109     421.395     -98.283
  H      -58.989     419.744     -96.511
  H      -59.381     421.602     -94.440
  H      -60.477     427.707    -100.507
  H      -57.185     420.643     -95.067
  H      -59.551     426.769    -101.647
  H      -57.057     421.773     -96.423
  P      -61.251     418.632     -95.826
  C      -61.733     417.026     -97.773
  O      -61.460     418.363     -97.396
  O      -62.758     418.649     -95.288
  O      -60.423     417.638     -95.071
  H      -63.108     417.734     -95.251
  H      -61.990     417.010     -98.840
  H      -62.566     416.627     -97.202
  H      -60.840     416.409     -97.619
  H      -55.320     424.732     -91.551
  H      -56.693     424.416     -92.585
  H      -55.325     425.313     -93.199

 3  4  5  6  7  8  9  10  11  12  13  21  23  27  28  29  30  32 0
 6-311+G(2d,p)
 ****
 34  35 0
 6-311+G(2d,p)
 ****
 1  2  14  15  16  17  18  19  20  22  24  25  26 0
 3-21G
 ****
 31  33  36  37  38  39  40  41  42  43  44  45  46 0
 3-21G
 ****


