%nproc=1
%NoSave
%Mem=1900MB
#P OB98/GEN NMR

erre ene a

0 1
  C       49.632    -976.579     288.021
  O       51.005    -976.773     288.281
  H       49.381    -975.534     288.236
  H       49.022    -977.220     288.663
  H       49.405    -976.781     286.973
  P       51.618    -978.241     288.051
  C       52.291    -977.368     285.705
  O       51.699    -978.427     286.454
  C       53.648    -977.791     285.169
  O       53.530    -979.015     284.421
  C       54.287    -976.763     284.234
  O       54.924    -975.740     284.989
  C       55.281    -977.656     283.494
  O       56.417    -977.926     284.334
  C       54.451    -978.932     283.287
  N       54.574    -979.906     278.311
  C       55.595    -979.940     279.243
  N       56.825    -980.218     278.778
  N       55.420    -979.684     280.515
  C       54.150    -979.345     280.827
  C       53.057    -979.278     279.993
  C       53.250    -979.607     278.594
  O       52.363    -979.616     277.729
  N       51.929    -978.836     280.655
  C       52.337    -978.685     281.893
  N       53.677    -978.974     282.057
  O       50.931    -979.367     288.757
  O       53.149    -978.096     288.484
  H       56.111    -978.556     285.017
  H       53.275    -978.338     289.422
  H       54.773    -980.099     277.348
  H       51.708    -978.379     282.725
  H       55.066    -979.835     283.307
  H       55.657    -977.202     282.576
  H       57.064    -980.137     277.799
  H       53.574    -976.372     283.513
  H       57.603    -980.188     279.443
  H       54.301    -978.008     286.030
  H       52.389    -976.509     286.372
  H       51.629    -977.091     284.874
  P       55.006    -974.231     284.429
  C       53.338    -972.976     285.963
  O       53.557    -973.610     284.695
  O       55.479    -974.126     283.011
  O       55.925    -973.458     285.488
  H       56.891    -973.510     285.278
  H       52.335    -972.607     286.009
  H       54.023    -972.162     286.078
  H       53.493    -973.686     286.748

 6  7  8  9  10  11  12  13  14  15  26  29  33  34 0
 6-311+G(2d,p)
 ****
 36  38  39  40  41 0
 6-311+G(2d,p)
 ****
 1  2  3  4  5  16  17  18  19  20  21  22  23  24  25 0
 3-21G
 ****
 27  28  30  31  32  35  37  42  43  44  45  46  47 0
 3-21G
 ****
 48  49 0
 3-21G
 ****


