%nproc=1
%NoSave
%Mem=1900MB
#P OB98/GEN NMR

erre ene a

0 1
  C      -29.605    -301.390     156.109
  O      -29.537    -301.127     157.495
  H      -28.980    -302.260     155.887
  H      -29.221    -300.536     155.549
  H      -30.629    -301.611     155.797
  P      -30.573    -300.085     158.138
  C      -29.004    -298.035     158.123
  O      -30.163    -298.642     157.569
  C      -28.964    -296.548     157.765
  O      -27.953    -295.904     158.598
  C      -28.594    -296.281     156.289
  O      -29.296    -295.113     155.850
  C      -27.113    -295.987     156.400
  O      -26.630    -295.287     155.281
  C      -27.063    -295.203     157.709
  N      -25.704    -295.117     158.233
  C      -24.952    -294.011     157.855
  O      -25.368    -293.126     157.108
  N      -23.660    -293.980     158.303
  C      -23.028    -294.979     158.983
  O      -21.844    -294.933     159.292
  C      -23.858    -296.152     159.313
  C      -25.137    -296.165     158.932
  O      -30.728    -300.147     159.623
  O      -31.949    -300.370     157.371
  H      -25.736    -294.944     155.462
  H      -32.704    -300.040     157.895
  H      -23.106    -293.176     158.046
  H      -23.383    -296.969     159.840
  H      -25.773    -297.019     159.140
  H      -27.460    -294.186     157.574
  H      -26.547    -296.921     156.481
  H      -28.819    -297.124     155.632
  H      -29.928    -296.092     158.020
  H      -28.124    -298.543     157.715
  H      -29.012    -298.159     159.213
  P      -30.235    -295.131     154.547
  C      -28.414    -295.077     152.735
  O      -29.477    -295.831     153.314
  O      -30.842    -293.804     154.211
  O      -31.392    -296.181     154.909
  H      -32.257    -295.802     154.662
  H      -27.981    -295.632     151.929
  H      -27.667    -294.885     153.477
  H      -28.796    -294.148     152.365

 6  7  8  9  10  11  12  13  14  15  16  26  31  32  33  34  35 0
 6-311+G(2d,p)
 ****
 36  37 0
 6-311+G(2d,p)
 ****
 1  2  3  4  5  17  18  19  20  21  22  23  24  25 0
 3-21G
 ****
 27  28  29  30  38  39  40  41  42  43  44  45 0
 3-21G
 ****


