%nproc=1
%NoSave
%Mem=1900MB
#P OB98/GEN NMR

erre ene a

0 1
  C     -286.295     413.693      36.545
  O     -285.708     412.491      37.003
  H     -285.503     414.364      36.213
  H     -286.847     414.173      37.357
  H     -286.965     413.502      35.702
  P     -286.663     411.259      37.376
  C     -286.731     410.152      35.043
  O     -286.275     410.058      36.386
  C     -286.311     408.914      34.241
  O     -287.000     408.941      32.948
  C     -284.799     408.835      33.945
  O     -284.464     407.438      33.865
  C     -284.736     409.493      32.580
  O     -283.497     409.314      31.945
  C     -285.976     408.855      31.933
  N     -286.425     409.473      30.695
  C     -285.605     409.363      29.577
  O     -284.523     408.769      29.562
  N     -286.063     409.966      28.435
  C     -287.239     410.643      28.300
  O     -287.618     411.135      27.246
  C     -288.064     410.735      29.518
  C     -287.627     410.154      30.635
  O     -288.122     411.566      37.458
  O     -286.090     410.749      38.784
  H     -286.663     411.073      39.504
  H     -283.430     409.937      31.192
  H     -285.481     409.889      27.617
  H     -288.999     411.272      29.448
  H     -288.223     410.194      31.547
  H     -285.792     407.787      31.753
  H     -284.868     410.577      32.685
  H     -284.186     409.311      34.711
  H     -286.662     408.017      34.764
  H     -286.289     411.049      34.594
  H     -287.821     410.252      35.040
  P     -283.811     406.614      35.079
  C     -286.018     405.609      35.976
  O     -284.750     405.350      35.388
  O     -283.508     407.444      36.283
  O     -282.477     405.964      34.477
  H     -281.834     405.818      35.193
  H     -286.536     404.685      36.127
  H     -286.591     406.237      35.326
  H     -285.881     406.099      36.917

 6  7  8  9  10  11  12  13  14  15  16  27  31  32  33  34  35 0
 6-311+G(2d,p)
 ****
 36  37 0
 6-311+G(2d,p)
 ****
 1  2  3  4  5  17  18  19  20  21  22  23  24  25 0
 3-21G
 ****
 26  28  29  30  38  39  40  41  42  43  44  45 0
 3-21G
 ****


