%nproc=1
%NoSave
%Mem=1900MB
#P OB98/GEN NMR

erre ene a

0 1
  C     -137.104      87.753     249.854
  O     -137.098      87.348     251.208
  H     -138.104      87.582     249.442
  H     -136.387      87.159     249.278
  H     -136.868      88.817     249.764
  P     -135.792      87.634     252.092
  C     -134.620      85.375     251.637
  O     -134.594      86.786     251.445
  C     -133.439      84.728     250.919
  O     -133.290      85.295     249.596
  C     -132.097      84.948     251.615
  O     -131.962      84.105     252.745
  C     -131.132      84.650     250.478
  O     -130.946      83.237     250.318
  C     -131.883      85.250     249.267
  N     -131.388      86.576     248.893
  C     -130.325      86.613     247.992
  O     -129.785      85.600     247.542
  N     -129.882      87.863     247.645
  C     -130.308      89.043     248.185
  O     -129.809      90.131     247.908
  C     -131.411      88.946     249.149
  C     -131.895      87.736     249.454
  O     -135.960      87.467     253.565
  O     -135.406      89.143     251.714
  H     -130.267      83.123     249.622
  H     -135.661      89.736     252.450
  H     -129.105      87.911     247.004
  H     -131.786      89.860     249.587
  H     -132.707      87.645     250.164
  H     -131.783      84.591     248.397
  H     -130.150      85.088     250.647
  H     -131.993      86.001     251.902
  H     -133.647      83.653     250.805
  H     -135.560      84.983     251.227
  H     -134.586      85.162     252.714
  P     -131.413      84.702     254.123
  C     -128.946      84.587     253.398
  O     -130.016      85.431     253.815
  O     -131.386      83.744     255.269
  O     -132.397      85.927     254.431
  H     -132.853      85.773     255.280
  H     -128.072      85.179     253.223
  H     -129.221      84.082     252.496
  H     -128.741      83.867     254.162

 6  7  8  9  10  11  12  13  14  15  16  26  31  32  33  34  35 0
 6-311+G(2d,p)
 ****
 36  37 0
 6-311+G(2d,p)
 ****
 1  2  3  4  5  17  18  19  20  21  22  23  24  25 0
 3-21G
 ****
 27  28  29  30  38  39  40  41  42  43  44  45 0
 3-21G
 ****


