%nproc=1
%NoSave
%Mem=1900MB
#P OB98/GEN NMR

erre ene a

0 1
  C       62.276    -615.639    -893.951
  O       63.009    -616.851    -893.991
  H       62.747    -614.894    -894.611
  H       61.263    -615.829    -894.311
  H       62.233    -615.253    -892.941
  P       64.537    -616.794    -893.501
  C       65.433    -615.689    -895.681
  O       65.431    -616.832    -894.841
  C       66.712    -615.673    -896.521
  O       67.868    -615.420    -895.681
  C       66.997    -616.997    -897.241
  O       66.254    -617.122    -898.431
  C       68.481    -616.823    -897.531
  O       68.665    -615.933    -898.651
  C       68.985    -616.160    -896.241
  N       73.082    -617.829    -893.651
  C       72.926    -616.888    -894.601
  N       71.809    -616.503    -895.251
  C       70.758    -617.213    -894.821
  C       70.749    -618.216    -893.871
  C       71.995    -618.521    -893.261
  N       72.143    -619.493    -892.301
  N       69.482    -618.746    -893.711
  C       68.724    -618.041    -894.551
  N       69.459    -617.123    -895.251
  O       64.773    -618.236    -892.861
  O       64.873    -615.683    -892.561
  H       68.286    -616.378    -899.421
  H       65.544    -618.215    -892.261
  H       73.850    -616.353    -894.881
  H       67.659    -618.169    -894.681
  H       69.795    -615.442    -896.411
  H       68.981    -617.762    -897.781
  H       66.855    -617.854    -896.571
  H       66.629    -614.846    -897.251
  H       65.400    -614.789    -895.061
  H       73.088    -619.757    -892.071
  H       71.355    -620.107    -892.131
  H       64.546    -615.706    -896.321
  P       65.447    -618.501    -898.661
  C       67.230    -620.313    -899.191
  O       66.306    -619.357    -899.711
  O       64.166    -618.035    -899.501
  O       65.066    -619.199    -897.391
  H       63.410    -618.634    -899.361
  H       67.728    -620.805    -900.000
  H       66.703    -621.036    -898.604
  H       67.952    -619.815    -898.578

 6  7  8  9  10  11  12  13  14  15  25  28  32  33  34  35 0
 6-311+G(2d,p)
 ****
 36  39  40 0
 6-311+G(2d,p)
 ****
 1  2  3  4  5  16  17  18  19  20  21  22  23  24 0
 3-21G
 ****
 26  27  29  30  31  37  38  41  42  43  44  45  46  47 0
 3-21G
 ****
 48 0
 3-21G
 ****


