%nproc=1
%NoSave
%Mem=1900MB
#P OB98/GEN NMR

erre ene a

0 1
  C       41.253      76.975     146.642
  O       40.460      76.445     147.691
  P       40.059      74.888     147.739
  C       41.457      72.789     148.316
  O       41.453      74.093     147.763
  C       42.354      71.863     147.490
  O       41.722      71.634     146.203
  C       43.761      72.416     147.224
  O       44.661      71.301     147.221
  C       43.635      73.006     145.833
  O       44.889      73.133     145.178
  C       42.670      72.008     145.181
  N       41.996      72.563     144.014
  C       42.153      71.902     142.796
  O       42.858      70.898     142.708
  N       41.500      72.394     141.692
  C       40.825      73.498     141.778
  N       40.151      73.914     140.671
  C       40.722      74.286     143.020
  C       41.307      73.754     144.090
  O       39.113      74.453     146.673
  O       39.522      74.664     149.226
  H       44.773      73.714     144.402
  H       38.564      74.890     149.327
  H       40.171      75.218     143.035
  H       41.263      74.251     145.051
  H       43.205      71.094     144.900
  H       43.186      74.003     145.899
  H       44.082      73.137     147.982
  H       42.412      70.894     148.001
  H       40.102      73.260     139.895
  H       40.434      72.400     148.295
  H       39.366      74.554     140.746
  H       41.790      72.830     149.359
  P       46.219      71.580     147.501
  C       47.490      72.640     149.498
  O       46.324      72.632     148.704
  O       46.620      72.480     146.233
  O       47.107      70.379     147.572
  H       47.576      72.382     146.065
  H       47.391      73.421     150.258
  H       48.372      72.861     148.885
  H       47.620      71.677     150.001
  H       41.401      78.023     146.801
  H       40.755      76.823     145.707
  H       42.201      76.479     146.626

 3  4  5  6  7  8  9  10  11  12  13  23  27  28  29  30  32 0
 6-311+G(2d,p)
 ****
 34  35 0
 6-311+G(2d,p)
 ****
 1  2  14  15  16  17  18  19  20  21  22  24  25  26 0
 3-21G
 ****
 31  33  36  37  38  39  40  41  42  43  44  45  46 0
 3-21G
 ****


