%nproc=1
%NoSave
%Mem=1900MB
#P OB98/GEN NMR

erre ene a

0 1
  C      272.494     462.711     492.658
  O      271.116     462.898     492.901
  P      270.314     464.043     492.117
  C      269.113     464.757     494.276
  O      269.920     465.181     493.175
  C      269.660     465.341     495.580
  O      271.018     464.899     495.805
  C      269.710     466.863     495.603
  O      268.422     467.413     495.805
  C      270.700     467.105     496.742
  O      270.039     467.012     498.012
  C      271.678     465.936     496.562
  N      276.433     467.667     497.259
  C      275.386     467.521     498.113
  N      274.142     467.089     497.845
  C      274.011     466.812     496.531
  C      274.972     466.952     495.541
  C      276.246     467.376     495.948
  N      277.329     467.465     495.108
  N      274.449     466.591     494.308
  C      273.189     466.270     494.558
  N      272.902     466.321     495.895
  O      269.194     463.559     491.262
  O      271.438     464.757     491.228
  H      269.501     467.820     498.120
  H      271.208     464.667     490.282
  H      275.592     467.782     499.149
  H      272.469     465.971     493.808
  H      271.961     465.492     497.528
  H      271.171     468.091     496.690
  H      270.145     467.237     494.663
  H      269.037     464.963     496.411
  H      269.134     463.663     494.322
  H      278.227     467.646     495.533
  H      277.292     466.975     494.218
  H      268.082     465.083     494.117
  P      267.809     468.423     494.732
  C      268.156     470.249     496.493
  O      268.300     469.891     495.133
  O      266.342     468.287     494.478
  O      268.655     468.115     493.401
  H      268.089     468.256     492.611
  H      267.110     470.510     496.692
  H      268.779     471.122     496.698
  H      268.457     469.436     497.151
  H      272.858     461.909     493.266
  H      273.024     463.609     492.898
  H      272.645     462.473     491.626

 3  4  5  6  7  8  9  10  11  12  22  25  29  30  31  32 0
 6-311+G(2d,p)
 ****
 33  36  37 0
 6-311+G(2d,p)
 ****
 1  2  13  14  15  16  17  18  19  20  21  23  24  26 0
 3-21G
 ****
 27  28  34  35  38  39  40  41  42  43  44  45  46  47  48 0
 3-21G
 ****


