%nproc=1
%NoSave
%Mem=1900MB
#P OB98/GEN NMR

erre ene a

0 1
  C       -8.360    -420.337    -565.217
  O       -9.600    -420.141    -564.568
  H       -7.738    -419.447    -565.069
  H       -8.510    -420.483    -566.288
  H       -7.843    -421.201    -564.793
  P      -10.696    -421.302    -564.763
  C      -12.268    -420.649    -562.784
  O      -12.045    -420.641    -564.186
  C      -13.099    -419.428    -562.389
  O      -12.335    -418.219    -562.561
  C      -14.361    -419.236    -563.222
  O      -15.421    -420.095    -562.822
  C      -14.674    -417.779    -562.925
  O      -15.245    -417.671    -561.609
  C      -13.254    -417.161    -562.962
  N      -12.896    -416.646    -564.283
  C      -12.869    -415.248    -564.429
  O      -13.154    -414.513    -563.483
  N      -12.555    -414.715    -565.656
  C      -12.275    -415.504    -566.653
  N      -11.990    -414.920    -567.853
  C      -12.277    -416.971    -566.539
  C      -12.588    -417.473    -565.349
  O      -10.323    -422.370    -563.629
  O      -10.808    -421.873    -566.137
  H      -14.627    -418.102    -560.989
  H      -11.019    -423.068    -563.584
  H      -12.044    -417.589    -567.406
  H      -12.601    -418.541    -565.189
  H      -13.159    -416.350    -562.233
  H      -15.384    -417.341    -563.620
  H      -14.155    -419.339    -564.297
  H      -13.338    -419.508    -561.318
  H      -12.064    -413.917    -567.907
  H      -11.299    -420.625    -562.278
  H      -11.933    -415.446    -568.720
  H      -12.803    -421.558    -562.489
  P      -16.338    -420.727    -563.983
  C      -16.496    -423.171    -563.121
  O      -17.165    -421.932    -563.325
  O      -15.278    -421.478    -564.924
  O      -17.164    -419.736    -564.749
  H      -15.503    -421.383    -565.861
  H      -17.172    -423.872    -562.678
  H      -15.659    -423.022    -562.471
  H      -16.154    -423.551    -564.061

 6  7  8  9  10  11  12  13  14  15  16  26  30  31  32  33  35 0
 6-311+G(2d,p)
 ****
 37  38 0
 6-311+G(2d,p)
 ****
 1  2  3  4  5  17  18  19  20  21  22  23  24  25 0
 3-21G
 ****
 27  28  29  34  36  39  40  41  42  43  44  45  46 0
 3-21G
 ****


