%nproc=1
%NoSave
%Mem=1900MB
#P OB98/GEN NMR

erre ene a

0 1
  C      772.086    -892.820     641.198
  O      772.206    -894.220     641.031
  P      770.916    -895.070     640.523
  C      771.244    -894.860     637.984
  O      771.276    -895.740     639.121
  C      772.490    -895.080     637.126
  O      773.675    -894.500     637.739
  C      772.817    -896.530     636.880
  O      771.950    -897.140     635.969
  C      774.284    -896.420     636.394
  O      774.292    -896.050     635.006
  C      774.809    -895.230     637.235
  N      775.679    -895.710     638.321
  C      776.820    -896.410     637.941
  O      777.034    -896.660     636.736
  N      777.732    -896.760     638.913
  C      777.442    -896.560     640.147
  N      778.385    -896.930     641.083
  C      776.170    -895.990     640.627
  C      775.346    -895.570     639.656
  O      769.624    -894.360     640.582
  O      770.930    -896.330     641.536
  H      770.034    -896.440     641.906
  H      775.226    -895.750     634.806
  H      775.959    -895.890     641.671
  H      774.415    -895.080     639.868
  H      775.369    -894.540     636.597
  H      774.844    -897.350     636.488
  H      772.831    -897.090     637.837
  H      772.333    -894.560     636.157
  H      779.263    -897.320     640.732
  H      771.240    -893.830     638.337
  H      778.393    -896.530     642.025
  H      770.350    -895.030     637.418
  P      771.782    -898.770     636.127
  C      770.091    -898.740     638.092
  O      770.316    -899.040     636.702
  O      772.747    -899.140     637.331
  O      772.110    -899.500     634.889
  H      773.197    -900.000     637.146
  H      769.000    -898.660     638.261
  H      770.568    -897.800     638.385
  H      770.466    -899.570     638.707
  H      773.019    -892.420     641.534
  H      771.326    -892.611     641.922
  H      771.821    -892.371     640.264

 3  4  5  6  7  8  9  10  11  12  13  24  27  28  29  30  32 0
 6-311+G(2d,p)
 ****
 34  35 0
 6-311+G(2d,p)
 ****
 1  2  14  15  16  17  18  19  20  21  22  23  25  26 0
 3-21G
 ****
 31  33  36  37  38  39  40  41  42  43  44  45  46 0
 3-21G
 ****


