%nproc=1
%NoSave
%Mem=1900MB
#P OB98/GEN NMR

erre ene a

0 1
  C     -181.225     473.701     519.141
  O     -182.079     474.829     519.273
  H     -181.751     472.938     518.565
  H     -180.976     473.291     520.127
  H     -180.313     473.973     518.610
  P     -181.571     476.075     520.138
  C     -181.160     477.552     518.060
  O     -181.887     477.398     519.263
  C     -182.005     478.316     517.024
  O     -183.037     477.409     516.558
  C     -182.691     479.564     517.629
  O     -182.438     480.753     516.888
  C     -184.140     479.119     517.790
  O     -185.090     480.173     517.763
  C     -184.315     478.075     516.670
  N     -185.382     477.113     516.926
  C     -186.699     477.583     516.897
  O     -187.025     478.752     516.661
  N     -187.682     476.647     517.149
  C     -187.459     475.330     517.439
  O     -188.379     474.536     517.651
  C     -186.058     474.898     517.484
  C     -185.094     475.794     517.224
  O     -180.164     475.985     520.638
  O     -182.622     476.175     521.339
  H     -185.975     479.780     517.653
  H     -182.230     475.802     522.149
  H     -188.632     476.978     517.124
  H     -185.843     473.862     517.705
  H     -184.047     475.503     517.233
  H     -184.528     478.571     515.713
  H     -184.249     478.613     518.769
  H     -182.277     479.798     518.619
  H     -181.374     478.575     516.169
  H     -180.903     476.572     517.685
  H     -180.227     478.112     518.242
  P     -182.762     482.232     517.389
  C     -180.303     482.992     517.901
  O     -181.486     483.151     517.110
  O     -183.396     482.332     518.751
  O     -183.853     482.755     516.306
  H     -184.455     483.362     516.795
  H     -179.559     483.687     517.573
  H     -179.932     481.994     517.792
  H     -180.534     483.176     518.929

 6  7  8  9  10  11  12  13  14  15  16  26  31  32  33  34  35 0
 6-311+G(2d,p)
 ****
 36  37 0
 6-311+G(2d,p)
 ****
 1  2  3  4  5  17  18  19  20  21  22  23  24  25 0
 3-21G
 ****
 27  28  29  30  38  39  40  41  42  43  44  45 0
 3-21G
 ****


