%nproc=1
%NoSave
%Mem=1900MB
#P OB98/GEN NMR

erre ene a

0 1
  C     -549.179    -119.530    -299.678
  O     -549.495    -120.044    -300.977
  P     -548.325    -120.125    -302.073
  C     -548.388    -117.546    -302.335
  O     -547.576    -118.704    -302.114
  C     -547.507    -116.296    -302.508
  O     -546.550    -116.542    -303.569
  C     -548.268    -115.022    -302.920
  O     -548.782    -114.186    -301.884
  C     -547.152    -114.231    -303.603
  O     -546.369    -113.528    -302.623
  C     -546.299    -115.299    -304.272
  N     -544.856    -114.012    -309.021
  C     -544.353    -113.686    -307.800
  N     -544.801    -114.075    -306.588
  C     -545.861    -114.882    -306.698
  C     -546.473    -115.306    -307.878
  C     -545.933    -114.839    -309.074
  N     -546.443    -115.146    -310.321
  N     -547.551    -116.144    -307.599
  C     -547.584    -116.202    -306.270
  N     -546.584    -115.470    -305.689
  O     -548.707    -120.694    -303.395
  O     -547.231    -121.057    -301.346
  H     -545.749    -112.969    -303.121
  H     -546.819    -121.642    -302.006
  H     -543.488    -113.036    -307.811
  H     -548.330    -116.748    -305.707
  H     -545.223    -115.088    -304.188
  H     -547.553    -113.471    -304.283
  H     -549.048    -115.253    -303.637
  H     -546.943    -116.110    -301.574
  H     -549.046    -117.411    -301.482
  H     -546.017    -114.732    -311.128
  H     -547.276    -115.716    -310.376
  H     -549.008    -117.747    -303.197
  P     -550.348    -114.191    -301.527
  C     -550.993    -112.245    -303.175
  O     -551.099    -113.619    -302.821
  O     -550.697    -113.489    -300.244
  O     -550.716    -115.741    -301.553
  H     -550.683    -116.160    -302.441
  H     -551.381    -112.114    -304.186
  H     -549.953    -111.919    -303.141
  H     -551.589    -111.653    -302.478
  H     -550.057    -119.540    -299.067
  H     -548.820    -118.526    -299.769
  H     -548.424    -120.139    -299.227

 3  4  5  6  7  8  9  10  11  12  22  25  29  30  31  32 0
 6-311+G(2d,p)
 ****
 33  36  37 0
 6-311+G(2d,p)
 ****
 1  2  13  14  15  16  17  18  19  20  21  23  24  26 0
 3-21G
 ****
 27  28  34  35  38  39  40  41  42  43  44  45  46  47  48 0
 3-21G
 ****


