%nproc=1
%NoSave
%Mem=1900MB
#P OB98/GEN NMR

erre ene a

0 1
  C      -66.028    -598.335    1045.836
  O      -64.671    -598.310    1046.236
  P      -63.514    -597.817    1045.234
  C      -61.101    -596.965    1045.460
  O      -62.281    -597.401    1046.141
  C      -60.456    -595.801    1046.216
  O      -61.354    -594.658    1046.287
  C      -60.112    -596.099    1047.667
  O      -59.107    -597.077    1047.897
  C      -59.881    -594.714    1048.213
  O      -58.557    -594.230    1047.892
  C      -60.956    -593.888    1047.442
  N      -62.088    -593.536    1048.304
  C      -61.819    -592.716    1049.368
  O      -60.671    -592.253    1049.630
  N      -62.871    -592.403    1050.194
  C      -64.159    -592.881    1050.075
  O      -65.056    -592.629    1050.873
  C      -64.362    -593.797    1048.922
  C      -63.358    -594.073    1048.097
  O      -63.946    -596.767    1044.239
  O      -63.019    -599.177    1044.552
  H      -58.406    -593.434    1048.430
  H      -62.662    -599.830    1045.164
  H      -62.692    -591.794    1050.989
  H      -65.386    -594.185    1048.800
  H      -63.517    -594.716    1047.278
  H      -60.509    -592.944    1047.072
  H      -59.968    -594.678    1049.309
  H      -61.010    -596.495    1048.157
  H      -59.583    -595.466    1045.641
  H      -61.393    -596.619    1044.447
  H      -60.395    -597.809    1045.360
  P      -58.887    -597.789    1049.297
  C      -58.723    -600.279    1050.082
  O      -59.265    -599.363    1049.149
  O      -59.436    -597.072    1050.514
  O      -57.285    -597.852    1049.405
  H      -57.034    -597.790    1050.344
  H      -59.064    -601.286    1049.798
  H      -59.106    -600.087    1051.087
  H      -57.624    -600.250    1050.059
  H      -66.631    -598.692    1046.644
  H      -66.139    -598.985    1044.993
  H      -66.339    -597.347    1045.568

 3  4  5  6  7  8  9  10  11  12  13  23  28  29  30  31  32 0
 6-311+G(2d,p)
 ****
 33  34 0
 6-311+G(2d,p)
 ****
 1  2  14  15  16  17  18  19  20  21  22  24  25  26  27 0
 3-21G
 ****
 35  36  37  38  39  40  41  42  43  44  45 0
 3-21G
 ****


