%nproc=1
%NoSave
%Mem=1900MB
#P OB98/GEN NMR

erre ene a

0 1
  C      -37.331      36.265    -153.295
  O      -37.350      37.514    -152.639
  H      -36.505      35.671    -152.898
  H      -37.172      36.409    -154.368
  H      -38.268      35.726    -153.127
  P      -38.579      38.496    -152.952
  C      -39.438      39.747    -155.059
  O      -38.579      38.742    -154.539
  C      -38.850      40.336    -156.343
  O      -37.669      41.112    -156.006
  C      -38.440      39.279    -157.374
  O      -38.753      39.769    -158.681
  C      -36.932      39.189    -157.215
  O      -36.283      38.722    -158.398
  C      -36.577      40.624    -156.809
  N      -35.309      40.679    -156.088
  C      -34.238      41.295    -156.744
  O      -34.387      41.753    -157.880
  N      -33.011      41.328    -156.129
  C      -32.846      40.720    -154.997
  N      -31.599      40.762    -154.450
  C      -33.930      39.999    -154.298
  C      -35.123      40.026    -154.891
  O      -38.092      39.901    -152.363
  O      -39.897      38.070    -152.393
  H      -36.405      39.395    -159.103
  H      -38.845      40.428    -152.034
  H      -33.735      39.485    -153.367
  H      -35.976      39.517    -154.459
  H      -36.504      41.270    -157.697
  H      -36.691      38.493    -156.404
  H      -38.930      38.313    -157.219
  H      -39.578      41.035    -156.769
  H      -30.879      41.252    -154.967
  H      -39.540      40.547    -154.318
  H      -31.346      40.289    -153.596
  H      -40.425      39.317    -155.254
  P      -40.128      39.257    -159.331
  C      -41.101      37.001    -160.172
  O      -39.964      37.702    -159.687
  O      -40.148      39.975    -160.762
  O      -41.338      39.598    -158.523
  H      -40.824      40.680    -160.771
  H      -40.837      35.982    -160.363
  H      -41.442      37.457    -161.078
  H      -41.881      37.036    -159.440

 6  7  8  9  10  11  12  13  14  15  16  26  30  31  32  33  35 0
 6-311+G(2d,p)
 ****
 37  38 0
 6-311+G(2d,p)
 ****
 1  2  3  4  5  17  18  19  20  21  22  23  24  25 0
 3-21G
 ****
 27  28  29  34  36  39  40  41  42  43  44  45  46 0
 3-21G
 ****


