%nproc=1
%NoSave
%Mem=1900MB
#P OB98/GEN NMR

erre ene a

0 1
  C      175.540     -64.572      70.227
  O      175.633     -64.382      68.829
  H      176.291     -65.304      70.534
  H      174.549     -64.952      70.488
  H      175.726     -63.632      70.753
  P      174.693     -63.256      68.182
  C      176.583     -62.390      66.615
  O      175.287     -62.960      66.720
  C      177.055     -62.444      65.161
  O      177.566     -63.777      64.889
  C      175.938     -62.164      64.149
  O      176.480     -61.429      63.047
  C      175.530     -63.552      63.691
  O      174.907     -63.573      62.413
  C      176.878     -64.280      63.725
  N      176.730     -65.732      63.797
  C      177.286     -66.484      62.768
  O      177.955     -66.022      61.844
  N      177.046     -67.833      62.826
  C      176.306     -68.480      63.770
  O      176.107     -69.690      63.755
  C      175.737     -67.631      64.827
  C      175.970     -66.317      64.791
  O      175.075     -61.938      69.005
  O      173.230     -63.544      68.206
  H      174.499     -61.846      69.788
  H      175.463     -63.053      61.798
  H      177.445     -68.393      62.087
  H      175.136     -68.108      65.590
  H      175.553     -65.661      65.547
  H      177.479     -64.012      62.848
  H      174.834     -63.995      64.413
  H      175.101     -61.616      64.581
  H      177.891     -61.745      65.032
  H      177.277     -62.959      67.241
  H      176.552     -61.354      66.965
  P      175.920     -59.944      62.802
  C      178.129     -59.358      61.533
  O      176.711     -59.381      61.524
  O      176.551     -59.159      64.041
  O      174.431     -59.893      62.708
  H      177.447     -59.458      64.273
  H      178.485     -58.955      60.608
  H      178.501     -60.354      61.655
  H      178.471     -58.748      62.343

 6  7  8  9  10  11  12  13  14  15  16  27  31  32  33  34  35 0
 6-311+G(2d,p)
 ****
 36  37 0
 6-311+G(2d,p)
 ****
 1  2  3  4  5  17  18  19  20  21  22  23  24  25 0
 3-21G
 ****
 26  28  29  30  38  39  40  41  42  43  44  45 0
 3-21G
 ****


