%nproc=1
%NoSave
%Mem=1900MB
#P OB98/GEN NMR

erre ene a

0 1
  C     -440.197     167.878    -118.793
  O     -440.008     169.189    -118.310
  H     -440.706     167.287    -118.024
  H     -439.229     167.410    -119.007
  H     -440.811     167.885    -119.696
  P     -439.304     170.231    -119.312
  C     -436.999     170.343    -120.517
  O     -437.921     169.557    -119.765
  C     -435.686     169.592    -120.669
  O     -434.954     169.642    -119.420
  C     -435.843     168.112    -120.992
  O     -436.126     167.895    -122.365
  C     -434.487     167.567    -120.559
  O     -433.498     167.742    -121.580
  C     -434.145     168.443    -119.346
  N     -431.921     166.498    -115.192
  C     -431.424     167.175    -116.249
  N     -432.090     167.678    -117.313
  C     -433.406     167.427    -117.204
  C     -434.058     166.742    -116.192
  C     -433.253     166.264    -115.140
  N     -433.752     165.537    -114.083
  N     -435.408     166.643    -116.456
  C     -435.572     167.268    -117.605
  N     -434.394     167.759    -118.093
  O     -438.849     171.415    -118.333
  O     -440.171     170.726    -120.422
  H     -432.629     167.700    -121.137
  H     -439.529     172.115    -118.324
  H     -430.350     167.337    -116.245
  H     -436.515     167.384    -118.129
  H     -433.099     168.760    -119.344
  H     -434.541     166.497    -120.334
  H     -436.624     167.667    -120.360
  H     -435.081     170.093    -121.434
  H     -436.820     171.286    -119.988
  H     -437.442     170.561    -121.497
  H     -433.116     165.207    -113.378
  H     -434.726     165.271    -114.093
  P     -436.957     166.595    -122.776
  C     -436.393     164.191    -123.602
  O     -435.906     165.422    -123.104
  O     -437.558     166.974    -124.209
  O     -438.031     166.200    -121.804
  H     -438.486     167.250    -124.125
  H     -435.573     163.524    -123.767
  H     -436.908     164.358    -124.525
  H     -437.066     163.760    -122.891

 6  7  8  9  10  11  12  13  14  15  25  28  32  33  34  35 0
 6-311+G(2d,p)
 ****
 36  37  40 0
 6-311+G(2d,p)
 ****
 1  2  3  4  5  16  17  18  19  20  21  22  23  24 0
 3-21G
 ****
 26  27  29  30  31  38  39 41  42  43  44  45  46  47  48 0
 3-21G
 ****


