%nproc=1
%NoSave
%Mem=1900MB
#P OB98/GEN NMR

erre ene a

0 1
  C     -258.669      84.824      69.579
  O     -259.335      86.033      69.219
  P     -260.936      86.099      69.315
  C     -260.937      88.329      70.592
  O     -261.383      87.637      69.435
  C     -261.267      89.827      70.542
  O     -260.380      90.523      69.628
  C     -262.706      90.141      70.105
  O     -263.127      91.292      70.846
  C     -262.533      90.479      68.639
  O     -263.637      91.198      68.112
  C     -261.204      91.239      68.686
  N     -260.570      91.338      67.381
  C     -259.757      92.448      67.149
  O     -259.682      93.344      67.990
  N     -259.078      92.525      65.957
  C     -259.312      91.651      65.028
  N     -258.604      91.750      63.871
  C     -260.303      90.567      65.174
  C     -260.869      90.457      66.373
  O     -261.555      85.183      70.317
  O     -261.396      85.716      67.826
  H     -264.018      91.761      68.818
  H     -262.231      85.210      67.876
  H     -260.524      89.912      64.344
  H     -261.601      89.690      66.582
  H     -261.348      92.252      69.082
  H     -262.425      89.555      68.058
  H     -263.406      89.321      70.293
  H     -261.092      90.243      71.544
  H     -257.948      92.514      63.775
  H     -259.854      88.205      70.688
  H     -258.693      91.076      63.120
  H     -261.374      87.858      71.480
  P     -264.502      91.227      71.671
  C     -263.237      91.349      73.938
  O     -264.248      91.882      73.110
  O     -264.592      89.663      72.030
  O     -265.731      91.654      70.937
  H     -265.527      89.425      72.172
  H     -263.013      92.070      74.728
  H     -262.317      91.161      73.373
  H     -263.584      90.419      74.396
  H     -257.613      84.949      69.459
  H     -259.008      84.029      68.949
  H     -258.886      84.587      70.600

 3  4  5  6  7  8  9  10  11  12  13  23  27  28  29  30  32 0
 6-311+G(2d,p)
 ****
 34  35 0
 6-311+G(2d,p)
 ****
 1  2  14  15  16  17  18  19  20  21  22  24  25  26 0
 3-21G
 ****
 31  33  36  37  38  39  40  41  42  43  44  45  46 0
 3-21G
 ****


