%nproc=1
%NoSave
%Mem=1900MB
#P OB98/GEN NMR

erre ene a

0 1
  C      -81.053     -26.747    -179.861
  O      -80.861     -27.133    -181.228
  P      -79.351     -27.487    -181.660
  C      -77.345     -26.195    -182.689
  O      -78.743     -26.214    -182.431
  C      -76.988     -25.225    -183.818
  O      -77.557     -25.705    -185.060
  C      -77.493     -23.793    -183.618
  O      -76.508     -22.881    -184.129
  C      -78.700     -23.716    -184.535
  O      -79.013     -22.375    -184.904
  C      -78.233     -24.603    -185.684
  N      -80.749     -23.892    -190.015
  C      -79.598     -23.284    -189.551
  N      -79.058     -22.335    -190.347
  N      -79.030     -23.577    -188.412
  C      -79.664     -24.571    -187.738
  C      -80.799     -25.256    -188.094
  C      -81.442     -24.889    -189.338
  O      -82.492     -25.356    -189.778
  N      -81.140     -26.194    -187.146
  C      -80.215     -26.064    -186.215
  N      -79.301     -25.086    -186.525
  O      -79.549     -28.582    -182.810
  O      -78.515     -28.015    -180.543
  H      -79.895     -22.393    -185.325
  H      -79.063     -29.396    -182.581
  H      -81.158     -23.616    -190.891
  H      -80.172     -26.630    -185.296
  H      -77.507     -24.082    -186.321
  H      -79.573     -24.142    -184.023
  H      -79.408     -22.104    -191.263
  H      -77.732     -23.534    -182.582
  H      -78.190     -21.908    -190.045
  H      -75.896     -25.230    -183.940
  H      -77.015     -27.203    -182.962
  H      -76.826     -25.914    -181.768
  P      -76.143     -21.625    -183.203
  C      -76.975     -19.163    -183.095
  O      -76.967     -20.389    -183.801
  O      -74.628     -21.298    -183.595
  O      -76.311     -21.877    -181.741
  H      -74.169     -20.869    -182.851
  H      -76.235     -19.141    -182.293
  H      -77.967     -19.005    -182.667
  H      -76.759     -18.349    -183.793
  H      -82.088     -26.537    -179.692
  H      -80.473     -25.872    -179.653
  H      -80.741     -27.543    -179.218

 3  4  5  6  7  8  9  10  11  12  23  26  30  31  33  0
 6-311+G(2d,p)
 ****
 35  36  37  38 0
 6-311+G(2d,p)
 ****
 1  2  13  14  15  16  17  18  19  20  21  22  24  25  27  28  29 0
 3-21G
 ****
 32  34  39  40  41  42  43  44  45  46  47  48  49 0
 3-21G
 ****


