%nproc=1
%NoSave
%Mem=1900MB
#P OB98/GEN NMR

erre ene a

0 1
  C     -834.459    -105.572    -647.390
  O     -834.305    -104.301    -646.784
  P     -833.428    -104.222    -645.438
  C     -832.279    -102.047    -646.287
  O     -832.102    -103.388    -645.837
  C     -831.063    -101.588    -647.078
  O     -830.970    -102.322    -648.316
  C     -831.082    -100.122    -647.472
  O     -830.663     -99.283    -646.404
  C     -830.064    -100.108    -648.612
  O     -828.728    -100.050    -648.059
  C     -830.306    -101.470    -649.280
  N     -830.302    -100.707    -654.292
  C     -829.249    -100.719    -653.395
  N     -828.004    -100.531    -653.911
  N     -829.388    -100.903    -652.114
  C     -830.670    -101.121    -651.738
  C     -831.797    -101.121    -652.532
  C     -831.635    -100.876    -653.946
  O     -832.533    -100.783    -654.780
  N     -832.921    -101.391    -651.793
  C     -832.487    -101.591    -650.567
  N     -831.120    -101.397    -650.475
  O     -832.875    -105.720    -645.271
  O     -834.159    -103.767    -644.224
  H     -828.566     -99.123    -647.819
  H     -832.675    -105.906    -644.343
  H     -830.129    -100.572    -655.280
  H     -833.098    -101.869    -649.718
  H     -829.354    -101.964    -649.536
  H     -830.172     -99.252    -649.273
  H     -827.821    -100.523    -654.905
  H     -832.062     -99.823    -647.865
  H     -827.218    -100.580    -653.275
  H     -830.165    -101.818    -646.480
  H     -832.407    -101.399    -645.421
  H     -833.186    -102.002    -646.912
  P     -831.596     -97.982    -646.109
  C     -831.246     -98.263    -643.554
  O     -832.161     -98.217    -644.633
  O     -832.867     -98.229    -647.056
  O     -830.919     -96.684    -646.380
  H     -833.286     -97.382    -647.274
  H     -830.411     -97.561    -643.698
  H     -830.843     -99.271    -643.448
  H     -831.767     -97.986    -642.634
  H     -835.061    -105.477    -648.270
  H     -834.935    -106.240    -646.703
  H     -833.498    -105.959    -647.656

 3  4  5  6  7  8  9  10  11  12  23  26  30  31  33  0
 6-311+G(2d,p)
 ****
 35  36  37  38 0
 6-311+G(2d,p)
 ****
 1  2  13  14  15  16  17  18  19  20  21  22  24  25  27  28  29 0
 3-21G
 ****
 32  34  39  40  41  42  43  44  45  46  47  48  49 0
 3-21G
 ****


