%nproc=1
%NoSave
%Mem=1900MB
#P OB98/GEN NMR

erre ene a

0 1
  C     -364.626      90.064      99.678
  O     -364.842      89.330      98.489
  H     -365.567      90.524      99.982
  H     -363.886      90.852      99.507
  H     -364.281      89.399     100.476
  P     -363.574      88.555      97.882
  C     -363.593      90.150      95.827
  O     -362.843      89.586      96.895
  C     -363.223      91.620      95.662
  O     -363.266      92.283      96.947
  C     -361.815      91.849      95.133
  O     -361.724      91.653      93.734
  C     -361.569      93.285      95.564
  O     -362.133      94.216      94.626
  C     -362.311      93.366      96.902
  N     -358.917      95.948      99.713
  C     -359.728      96.331      98.703
  N     -360.616      95.580      98.012
  C     -360.639      94.323      98.480
  C     -359.873      93.788      99.506
  C     -358.979      94.666     100.142
  N     -358.135      94.273     101.153
  N     -360.152      92.448      99.672
  C     -361.074      92.174      98.772
  N     -361.402      93.277      98.032
  O     -364.245      87.491      96.891
  O     -362.691      87.898      98.889
  H     -362.153      95.081      95.082
  H     -364.279      86.617      97.327
  H     -359.648      97.371      98.400
  H     -361.527      91.203      98.611
  H     -362.871      94.302      97.011
  H     -360.502      93.493      95.634
  H     -361.105      91.199      95.661
  H     -363.967      92.096      95.008
  H     -364.661      90.065      96.053
  H     -363.378      89.592      94.911
  H     -357.469      94.936     101.516
  H     -358.091      93.291     101.402
  P     -360.863      90.403      93.212
  C     -359.143      92.169      92.356
  O     -359.360      90.917      92.999
  O     -361.397      90.168      91.723
  O     -360.985      89.176      94.048
  H     -361.404      89.211      91.517
  H     -358.092      92.361      92.294
  H     -359.615      92.946      92.920
  H     -359.559      92.141      91.371

 6  7  8  9  10  11  12  13  14  15  25  28  32  33  34  35 0
 6-311+G(2d,p)
 ****
 36  37  40 0
 6-311+G(2d,p)
 ****
 1  2  3  4  5  16  17  18  19  20  21  22  23  24 0
 3-21G
 ****
 26  27  29  30  31  38  39 41  42  43  44  45  46  47  48 0
 3-21G
 ****


