%nproc=1
%NoSave
%Mem=1900MB
#P OB98/GEN NMR

erre ene a

0 1
  C      181.578     215.762     454.835
  O      180.618     215.231     453.943
  P      179.109     215.761     453.952
  C      179.461     217.236     451.892
  O      179.101     217.213     453.267
  C      178.817     218.420     451.169
  O      179.266     218.431     449.783
  C      177.283     218.409     451.154
  O      176.857     219.775     451.208
  C      176.968     217.833     449.781
  O      175.652     218.147     449.339
  C      178.081     218.466     448.958
  N      175.968     216.663     444.666
  C      175.430     217.275     445.742
  N      176.059     217.706     446.857
  C      177.373     217.444     446.793
  C      178.057     216.797     445.778
  C      177.297     216.406     444.660
  N      177.832     215.809     443.540
  N      179.394     216.660     446.105
  C      179.508     217.218     447.294
  N      178.328     217.762     447.718
  O      178.418     215.695     455.276
  O      178.368     214.845     452.874
  H      175.502     217.702     448.486
  H      177.792     214.191     453.326
  H      174.360     217.458     445.699
  H      180.415     217.257     447.885
  H      177.868     219.513     448.711
  H      177.063     216.740     449.810
  H      176.834     217.831     451.967
  H      179.191     219.344     451.629
  H      179.115     216.308     451.433
  H      177.226     215.696     442.747
  H      178.841     215.850     443.395
  H      180.555     217.283     451.794
  P      175.631     220.190     452.156
  C      177.241     220.426     454.134
  O      176.061     219.807     453.648
  O      174.292     219.693     451.726
  O      175.695     221.795     452.164
  H      174.838     222.152     452.475
  H      178.113     219.891     453.755
  H      177.240     220.383     455.230
  H      177.291     221.473     453.824
  H      182.520     215.280     454.673
  H      181.260     215.594     455.843
  H      181.681     216.813     454.664

 3  4  5  6  7  8  9  10  11  12  22  25  29  30  31  32 0
 6-311+G(2d,p)
 ****
 33  36  37 0
 6-311+G(2d,p)
 ****
 1  2  13  14  15  16  17  18  19  20  21  23  24  26 0
 3-21G
 ****
 27  28  34  35  38  39  40  41  42  43  44  45  46  47  48 0
 3-21G
 ****


