%nproc=1
%NoSave
%Mem=1900MB
#P OB98/GEN NMR

erre ene a

0 1
  C     -413.980    -367.507     486.022
  O     -415.333    -367.891     486.273
  P     -415.608    -369.211     487.128
  C     -417.124    -368.260     489.088
  O     -416.989    -369.068     487.929
  C     -418.570    -367.731     489.157
  O     -418.887    -366.966     487.975
  C     -419.614    -368.842     489.278
  O     -419.822    -369.229     490.625
  C     -420.826    -368.192     488.633
  O     -421.450    -367.278     489.557
  C     -420.165    -367.428     487.461
  N     -419.945    -368.150     486.192
  C     -420.900    -368.084     485.172
  O     -421.943    -367.439     485.245
  N     -420.600    -368.767     484.022
  C     -419.412    -369.372     483.725
  O     -419.176    -369.914     482.655
  C     -418.378    -369.283     484.775
  C     -418.696    -368.709     485.942
  O     -414.495    -369.174     488.265
  O     -415.554    -370.478     486.329
  H     -421.882    -367.818     490.236
  H     -413.875    -369.916     488.168
  H     -421.304    -368.793     483.301
  H     -417.411    -369.708     484.568
  H     -417.938    -368.633     486.724
  H     -420.758    -366.535     487.210
  H     -421.577    -368.932     488.382
  H     -419.320    -369.697     488.661
  H     -418.635    -367.055     490.021
  H     -416.419    -367.430     489.052
  H     -416.887    -368.858     489.973
  P     -419.221    -370.612     491.155
  C     -417.759    -370.106     493.205
  O     -419.055    -370.436     492.742
  O     -418.012    -371.124     490.429
  O     -420.459    -371.637     491.046
  H     -420.409    -372.142     490.200
  H     -417.818    -369.860     494.265
  H     -417.378    -369.236     492.664
  H     -417.086    -370.952     493.078
  H     -413.966    -366.609     485.441
  H     -413.482    -368.287     485.485
  H     -413.479    -367.338     486.952

 3  4  5  6  7  8  9  10  11  12  13  23  28  29  30  31  32 0
 6-311+G(2d,p)
 ****
 33  34 0
 6-311+G(2d,p)
 ****
 1  2  14  15  16  17  18  19  20  21  22  24  25  26  27 0
 3-21G
 ****
 35  36  37  38  39  40  41  42  43  44  45 0
 3-21G
 ****


