%nproc=1
%NoSave
%Mem=1900MB
#P OB98/GEN NMR

erre ene a

0 1
  C       52.070      -3.569     -79.340
  O       52.487      -2.778     -78.245
  P       52.730      -1.206     -78.406
  C       55.268      -1.517     -78.255
  O       54.194      -0.988     -79.020
  C       56.613      -0.975     -78.736
  O       56.851      -1.414     -80.099
  C       56.718       0.556     -78.710
  O       58.051       0.884     -78.304
  C       56.492       0.939     -80.160
  O       57.024       2.219     -80.472
  C       57.163      -0.240     -80.874
  N       56.722      -0.380     -82.252
  C       57.620       0.013     -83.247
  O       58.674       0.575     -82.942
  N       57.293      -0.227     -84.557
  C       56.100      -0.643     -84.852
  N       55.839      -0.933     -86.155
  C       55.043      -0.830     -83.838
  C       55.429      -0.725     -82.570
  O       52.443      -0.394     -77.186
  O       51.767      -0.780     -79.613
  H       51.202      -0.037     -79.325
  H       57.997       2.193     -80.359
  H       54.031      -1.055     -84.142
  H       54.734      -0.872     -81.751
  H       58.255      -0.126     -80.861
  H       55.418       0.955     -80.374
  H       56.005       1.019     -78.021
  H       57.401      -1.415     -78.111
  H       56.600      -0.832     -86.815
  H       55.263      -2.604     -78.367
  H       55.074      -1.547     -86.430
  H       55.118      -1.290     -77.194
  P       58.258       2.107     -77.284
  C       59.431       3.667     -78.992
  O       58.324       3.458     -78.142
  O       59.793       1.909     -76.852
  O       57.388       2.117     -76.069
  H       59.930       2.312     -75.975
  H       59.344       4.659     -79.442
  H       59.442       2.922     -79.792
  H       60.366       3.619     -78.428
  H       51.965      -4.586     -79.026
  H       52.799      -3.510     -80.121
  H       51.130      -3.209     -79.702

 3  4  5  6  7  8  9  10  11  12  13  24  27  28  29  30  32 0
 6-311+G(2d,p)
 ****
 34  35 0
 6-311+G(2d,p)
 ****
 1  2  14  15  16  17  18  19  20  21  22  23  25  26 0
 3-21G
 ****
 31  33  36  37  38  39  40  41  42  43  44  45  46 0
 3-21G
 ****


