%nproc=1
%NoSave
%Mem=1900MB
#P OB98/GEN NMR

erre ene a

0 1
  C     1202.585     286.201    -450.499
  O     1202.968     285.481    -451.664
  P     1202.860     283.869    -451.598
  C     1204.736     283.880    -453.412
  O     1204.251     283.318    -452.192
  C     1206.246     283.661    -453.528
  O     1206.924     284.302    -452.437
  C     1206.670     282.225    -453.493
  O     1206.441     281.567    -454.724
  C     1208.163     282.336    -453.136
  O     1208.944     282.524    -454.311
  C     1208.167     283.600    -452.257
  N     1208.414     283.308    -450.836
  C     1209.180     284.275    -450.149
  O     1209.614     285.274    -450.738
  N     1209.468     284.026    -448.811
  C     1209.045     282.958    -448.237
  N     1209.360     282.768    -446.918
  C     1208.241     281.913    -448.942
  C     1207.989     282.136    -450.242
  O     1201.806     283.525    -452.759
  O     1202.445     283.315    -450.284
  H     1208.625     283.351    -454.731
  H     1201.338     282.694    -452.560
  H     1207.917     281.029    -448.418
  H     1207.411     281.457    -450.823
  H     1208.977     284.303    -452.577
  H     1208.529     281.431    -452.610
  H     1206.149     281.670    -452.672
  H     1206.579     284.139    -454.465
  H     1209.924     283.484    -446.478
  H     1204.512     284.948    -453.444
  H     1209.051     281.978    -446.387
  H     1204.196     283.399    -454.239
  P     1205.996     280.024    -454.708
  C     1206.645     279.794    -457.181
  O     1206.871     279.330    -455.860
  O     1204.542     280.094    -455.394
  O     1205.982     279.347    -453.400
  H     1204.121     279.211    -455.359
  H     1207.428     279.379    -457.851
  H     1206.721     280.891    -457.217
  H     1205.655     279.462    -457.518
  H     1202.703     287.250    -450.673
  H     1203.203     285.904    -449.677
  H     1201.561     285.990    -450.270

 3  4  5  6  7  8  9  10  11  12  13  21  23  27  28  29  30  32 0
 6-311+G(2d,p)
 ****
 34  35 0
 6-311+G(2d,p)
 ****
 1  2  14  15  16  17  18  19  20  22  24  25  26 0
 3-21G
 ****
 31  33  36  37  38  39  40  41  42  43  44  45  46 0
 3-21G
 ****


