%nproc=1
%NoSave
%Mem=1900MB
#P OB98/GEN NMR

erre ene a

0 1
  C      384.301    -598.567     162.975
  O      383.872    -599.490     163.976
  P      384.535    -600.951     163.994
  C      385.530    -600.387     166.313
  O      385.774    -600.940     165.021
  C      386.536    -600.933     167.337
  O      386.264    -602.346     167.544
  C      388.011    -600.857     166.907
  O      388.739    -599.673     167.224
  C      388.620    -601.988     167.738
  O      388.913    -601.510     169.065
  C      387.514    -603.031     167.794
  N      387.835    -608.107     167.229
  C      387.645    -607.334     168.324
  N      387.576    -605.984     168.388
  C      387.699    -605.442     167.163
  C      387.896    -606.109     165.966
  C      387.965    -607.510     166.025
  N      388.169    -608.301     164.921
  N      387.987    -605.215     164.919
  C      387.875    -604.025     165.483
  N      387.685    -604.108     166.830
  O      384.811    -601.560     162.664
  O      383.442    -601.811     164.795
  H      389.354    -602.248     169.530
  H      383.387    -602.703     164.407
  H      387.541    -607.857     169.268
  H      387.923    -603.082     164.949
  H      387.429    -603.498     168.787
  H      389.566    -602.344     167.320
  H      388.116    -601.078     165.838
  H      386.401    -600.419     168.299
  H      384.512    -600.621     166.633
  H      388.252    -609.297     165.057
  H      388.326    -607.866     164.021
  H      385.586    -599.298     166.215
  P      388.634    -598.361     166.319
  C      387.561    -597.201     168.409
  O      387.516    -597.447     167.016
  O      388.414    -598.612     164.864
  O      389.994    -597.586     166.662
  H      390.043    -597.245     167.567
  H      386.859    -596.398     168.643
  H      388.559    -596.905     168.722
  H      387.255    -598.106     168.948
  H      383.773    -597.644     163.091
  H      384.100    -598.973     162.006
  H      385.352    -598.392     163.078

 3  4  5  6  7  8  9  10  11  12  22  25  29  30  31  32 0
 6-311+G(2d,p)
 ****
 33  36  37 0
 6-311+G(2d,p)
 ****
 1  2  13  14  15  16  17  18  19  20  21  23  24  26 0
 3-21G
 ****
 27  28  34  35  38  39  40  41  42  43  44  45  46  47  48 0
 3-21G
 ****


