%nproc=1
%NoSave
%Mem=1900MB
#P OB98/GEN NMR

erre ene a

0 1
  C     -396.593    -178.387    1023.272
  O     -395.713    -178.732    1022.229
  H     -397.433    -177.837    1022.844
  H     -396.083    -177.744    1023.993
  H     -396.973    -179.276    1023.776
  P     -394.537    -179.790    1022.523
  C     -394.714    -180.702    1020.109
  O     -393.865    -180.129    1021.104
  C     -393.927    -181.000    1018.828
  O     -393.755    -179.761    1018.077
  C     -392.530    -181.580    1019.087
  O     -392.221    -182.451    1017.980
  C     -391.658    -180.333    1019.031
  O     -390.306    -180.663    1018.833
  C     -392.344    -179.564    1017.894
  N     -391.983    -178.145    1017.886
  C     -390.877    -177.793    1017.114
  O     -390.183    -178.619    1016.498
  N     -390.541    -176.466    1017.124
  C     -391.158    -175.492    1017.849
  O     -390.799    -174.323    1017.847
  C     -392.292    -175.929    1018.672
  C     -392.645    -177.210    1018.660
  O     -394.928    -180.983    1023.330
  O     -393.394    -178.931    1023.247
  H     -389.764    -179.843    1018.762
  H     -392.894    -179.491    1023.867
  H     -389.743    -176.188    1016.566
  H     -392.801    -175.187    1019.274
  H     -393.483    -177.566    1019.261
  H     -392.067    -179.982    1016.917
  H     -391.732    -179.767    1019.975
  H     -392.446    -182.124    1020.032
  H     -394.538    -181.676    1018.201
  H     -395.509    -179.975    1019.896
  H     -395.168    -181.618    1020.499
  P     -392.805    -183.944    1017.887
  C     -393.409    -184.017    1015.374
  O     -392.542    -184.504    1016.392
  O     -394.220    -184.082    1018.356
  O     -391.822    -184.827    1018.785
  H     -392.312    -185.597    1019.145
  H     -393.139    -184.455    1014.436
  H     -393.320    -182.953    1015.309
  H     -394.419    -184.277    1015.612

 6  7  8  9  10  11  12  13  14  15  16  26  31  32  33  34  35 0
 6-311+G(2d,p)
 ****
 36  37 0
 6-311+G(2d,p)
 ****
 1  2  3  4  5  17  18  19  20  21  22  23  24  25 0
 3-21G
 ****
 27  28  29  30  38  39  40  41  42  43  44  45 0
 3-21G
 ****


