%nproc=1
%NoSave
%Mem=1900MB
#P OB98/GEN NMR

erre ene a

0 1
  C     -199.346    -708.770    -259.657
  O     -200.166    -709.257    -258.609
  H     -199.984    -708.293    -260.407
  H     -198.805    -709.592    -260.121
  H     -198.637    -708.025    -259.269
  P     -199.418    -709.916    -257.351
  C     -199.505    -709.352    -254.818
  O     -200.219    -709.434    -256.043
  C     -200.092    -708.261    -253.921
  O     -199.354    -707.021    -254.131
  C     -201.582    -707.962    -254.173
  O     -202.199    -707.637    -252.922
  C     -201.531    -706.702    -255.024
  O     -202.756    -705.961    -254.976
  C     -200.341    -705.991    -254.380
  N     -201.223    -701.325    -256.062
  C     -201.929    -702.110    -255.164
  N     -203.056    -701.566    -254.637
  N     -201.582    -703.321    -254.827
  C     -200.414    -703.725    -255.400
  C     -199.615    -703.050    -256.306
  C     -200.054    -701.720    -256.700
  O     -199.472    -700.986    -257.503
  N     -198.543    -703.813    -256.675
  C     -198.689    -704.942    -256.012
  N     -199.811    -704.937    -255.223
  O     -198.050    -709.086    -257.282
  O     -199.174    -711.385    -257.444
  H     -202.752    -705.334    -255.732
  H     -197.347    -709.547    -257.773
  H     -201.549    -700.408    -256.301
  H     -198.015    -705.794    -256.056
  H     -200.599    -705.533    -253.417
  H     -201.322    -706.951    -256.068
  H     -203.368    -700.624    -254.822
  H     -202.133    -708.782    -254.656
  H     -203.568    -702.113    -253.951
  H     -199.935    -708.552    -252.869
  H     -198.459    -709.110    -255.034
  H     -199.545    -710.327    -254.305
  P     -202.871    -708.826    -252.080
  C     -201.959    -709.889    -249.884
  O     -202.369    -708.704    -250.560
  O     -202.100    -710.126    -252.613
  O     -204.352    -708.943    -252.266
  H     -202.673    -710.920    -252.522
  H     -201.655    -709.644    -248.888
  H     -201.139    -710.333    -250.408
  H     -202.775    -710.580    -249.848

 6  7  8  9  10  11  12  13  14  15  26  29  33  34 0
 6-311+G(2d,p)
 ****
 36  38  39  40  41 0
 6-311+G(2d,p)
 ****
 1  2  3  4  5  16  17  18  19  20  21  22  23  24  25 0
 3-21G
 ****
 27  28  30  31  32  35  37  42  43  44  45  46  47 0
 3-21G
 ****
 48  49 0
 3-21G
 ****


