%nproc=1
%NoSave
%Mem=1900MB
#P OB98/GEN NMR

erre ene a

0 1
  C      363.443     656.359     526.615
  O      364.615     655.757     526.086
  H      363.437     656.219     527.696
  H      362.550     655.881     526.196
  H      363.433     657.430     526.395
  P      364.834     655.763     524.496
  C      365.657     657.530     522.809
  O      365.690     657.073     524.154
  C      366.720     658.603     522.578
  O      366.534     659.635     523.581
  C      368.155     658.051     522.721
  O      368.982     658.348     521.601
  C      368.600     658.580     524.087
  O      369.993     658.723     524.237
  C      367.801     659.879     524.233
  N      367.586     660.298     525.619
  C      368.686     660.825     526.302
  O      369.804     660.998     525.815
  N      368.446     661.188     527.602
  C      367.272     661.059     528.274
  O      367.128     661.400     529.443
  C      366.166     660.471     527.516
  C      366.366     660.111     526.239
  O      363.598     655.585     523.671
  O      365.872     654.574     524.250
  H      370.414     657.878     523.961
  H      365.407     653.788     523.909
  H      369.231     661.588     528.096
  H      365.218     660.341     528.026
  H      365.567     659.675     525.643
  H      368.290     660.697     523.713
  H      368.268     657.869     524.850
  H      368.147     656.953     522.750
  H      366.564     659.062     521.597
  H      364.655     657.946     522.620
  H      365.828     656.685     522.124
  P      369.690     657.248     520.684
  C      368.809     655.218     519.271
  O      368.548     656.483     519.859
  O      370.705     656.399     521.363
  O      370.450     658.124     519.564
  H      371.260     657.627     519.320
  H      367.931     654.871     518.767
  H      369.082     654.519     520.034
  H      369.611     655.310     518.569

 6  7  8  9  10  11  12  13  14  15  16  26  31  32  33  34  35 0
 6-311+G(2d,p)
 ****
 36  37 0
 6-311+G(2d,p)
 ****
 1  2  3  4  5  17  18  19  20  21  22  23  24  25 0
 3-21G
 ****
 27  28  29  30  38  39  40  41  42  43  44  45 0
 3-21G
 ****


