%nproc=1
%NoSave
%Mem=1900MB
#P OB98/GEN NMR

erre ene a

0 1
  C      136.506     -76.796      25.840
  O      135.505     -77.175      26.764
  H      136.490     -75.708      25.733
  H      136.317     -77.247      24.862
  H      137.494     -77.096      26.202
  P      135.326     -78.733      27.090
  C      137.202     -78.891      28.857
  O      136.770     -79.253      27.552
  C      137.441     -80.143      29.694
  O      136.187     -80.702      30.132
  C      138.177     -81.256      28.951
  O      139.573     -81.005      28.940
  C      137.790     -82.455      29.799
  O      138.563     -82.462      31.014
  C      136.314     -82.151      30.109
  N      132.938     -85.808      29.149
  C      133.768     -85.630      30.240
  N      133.717     -86.589      31.189
  N      134.583     -84.617      30.375
  C      134.574     -83.778      29.314
  C      133.812     -83.858      28.171
  C      132.872     -84.953      28.058
  O      132.108     -85.139      27.116
  N      134.126     -82.859      27.286
  C      135.049     -82.154      27.910
  N      135.368     -82.680      29.139
  O      134.697     -79.568      26.016
  O      134.476     -78.752      28.444
  H      138.122     -83.085      31.620
  H      133.521     -78.812      28.260
  H      132.346     -86.619      29.094
  H      135.516     -81.258      27.520
  H      136.010     -82.524      31.092
  H      137.961     -83.408      29.297
  H      133.334     -87.506      31.003
  H      137.780     -81.401      27.941
  H      134.353     -86.503      31.972
  H      137.991     -79.843      30.595
  H      136.417     -78.274      29.305
  H      138.124     -78.303      28.803
  P      140.508     -81.577      27.765
  C      139.826     -80.193      25.692
  O      139.645     -81.396      26.427
  O      141.026     -82.955      27.993
  O      141.651     -80.478      27.592
  H      142.433     -80.623      28.180
  H      139.194     -80.204      24.829
  H      140.848     -80.113      25.385
  H      139.573     -79.356      26.309

 6  7  8  9  10  11  12  13  14  15  26  29  33  34 0
 6-311+G(2d,p)
 ****
 36  38  39  40  41 0
 6-311+G(2d,p)
 ****
 1  2  3  4  5  16  17  18  19  20  21  22  23  24  25 0
 3-21G
 ****
 27  28  30  31  32  35  37  42  43  44  45  46  47 0
 3-21G
 ****
 48  49 0
 3-21G
 ****


