%nproc=1
%NoSave
%Mem=1900MB
#P OB98/GEN NMR

erre ene a

0 1
  C      448.784    -365.516      62.824
  O      449.776    -364.825      62.082
  P      450.094    -363.282      62.361
  C      452.635    -363.707      61.860
  O      451.480    -362.919      61.668
  C      453.606    -363.458      60.696
  O      453.162    -364.167      59.520
  C      453.702    -361.977      60.348
  O      454.802    -361.378      61.014
  C      453.848    -362.002      58.838
  O      455.209    -362.263      58.464
  C      452.943    -363.201      58.457
  N      451.490    -362.967      58.337
  C      451.005    -362.200      57.281
  O      451.716    -361.712      56.402
  N      449.651    -361.982      57.281
  C      448.756    -362.490      58.186
  O      447.603    -362.095      58.313
  C      449.292    -363.503      59.099
  C      450.615    -363.676      59.145
  O      450.444    -363.272      63.924
  O      448.992    -362.330      62.027
  H      455.769    -361.613      58.929
  H      449.672    -362.984      64.449
  H      449.305    -361.310      56.597
  H      448.606    -364.037      59.737
  H      451.041    -364.397      59.843
  H      453.277    -363.654      57.515
  H      453.598    -361.039      58.408
  H      452.766    -361.470      60.601
  H      454.595    -363.853      60.968
  H      452.365    -364.763      61.912
  H      453.114    -363.442      62.810
  P      454.889    -359.781      61.129
  C      455.643    -360.070      63.565
  O      455.938    -359.492      62.303
  O      453.579    -359.079      61.252
  O      455.667    -359.362      59.791
  H      455.018    -359.079      59.111
  H      456.515    -359.956      64.214
  H      455.412    -361.133      63.455
  H      454.788    -359.553      64.007
  H      448.727    -366.530      62.486
  H      447.837    -365.039      62.683
  H      449.040    -365.501      63.863

 3  4  5  6  7  8  9  10  11  12  13  23  28  29  30  31  32 0
 6-311+G(2d,p)
 ****
 33  34 0
 6-311+G(2d,p)
 ****
 1  2  14  15  16  17  18  19  20  21  22  24  25  26  27 0
 3-21G
 ****
 35  36  37  38  39  40  41  42  43  44  45 0
 3-21G
 ****


