%nproc=1
%NoSave
%Mem=1900MB
#P OB98/GEN NMR

erre ene a

0 1
  C     -125.156     637.078     -68.460
  O     -125.665     638.313     -68.995
  P     -127.235     638.586     -68.777
  C     -128.285     640.039     -70.667
  O     -127.577     640.004     -69.434
  C     -128.473     641.490     -71.125
  O     -129.275     642.251     -70.191
  C     -127.167     642.256     -71.254
  O     -126.455     641.870     -72.422
  C     -127.670     643.690     -71.275
  O     -128.174     644.037     -72.587
  C     -128.845     643.637     -70.286
  N     -128.685     647.740     -67.229
  C     -129.103     647.583     -68.500
  N     -129.096     646.461     -69.251
  C     -128.647     645.416     -68.539
  C     -128.202     645.410     -67.223
  C     -128.230     646.658     -66.562
  N     -127.805     646.815     -65.252
  N     -127.807     644.153     -66.829
  C     -127.980     643.402     -67.905
  N     -128.490     644.111     -68.947
  O     -127.354     638.841     -67.201
  O     -128.109     637.462     -69.227
  H     -127.400     644.314     -73.121
  H     -127.798     638.078     -66.773
  H     -129.457     648.480     -69.008
  H     -127.758     642.345     -67.964
  H     -129.706     644.225     -70.621
  H     -126.909     644.429     -71.025
  H     -126.535     642.095     -70.366
  H     -128.997     641.461     -72.096
  H     -129.277     639.564     -70.544
  H     -127.785     647.753     -64.869
  H     -127.368     646.038     -64.773
  H     -127.732     639.461     -71.401
  P     -124.878     641.593     -72.271
  C     -124.157     642.431     -74.606
  O     -124.412     641.309     -73.793
  O     -124.859     640.150     -71.607
  O     -124.108     642.664     -71.567
  H     -125.484     639.539     -72.050
  H     -123.820     642.087     -75.589
  H     -123.375     643.045     -74.166
  H     -125.074     643.013     -74.726
  H     -124.108     637.006     -68.664
  H     -125.665     636.255     -68.916
  H     -125.316     637.055     -67.402

 3  4  5  6  7  8  9  10  11  12  22  25  29  30  31  32 0
 6-311+G(2d,p)
 ****
 33  36  37 0
 6-311+G(2d,p)
 ****
 1  2  13  14  15  16  17  18  19  20  21  23  24  26 0
 3-21G
 ****
 27  28  34  35  38  39  40  41  42  43  44  45  46  47  48 0
 3-21G
 ****


