%nproc=1
%NoSave
%Mem=1900MB
#P OB98/GEN NMR

erre ene a

0 1
  C      -73.200     -75.971    1035.658
  O      -74.471     -76.425    1035.233
  H      -72.447     -76.691    1035.325
  H      -73.164     -75.899    1036.751
  H      -72.980     -74.994    1035.220
  P      -75.771     -75.611    1035.703
  C      -78.204     -75.620    1034.807
  O      -77.040     -76.397    1035.101
  C      -79.287     -76.493    1034.156
  O      -78.807     -76.921    1032.833
  C      -79.623     -77.765    1034.948
  O      -81.007     -78.081    1034.682
  C      -78.700     -78.786    1034.299
  O      -79.067     -80.099    1034.646
  C      -78.833     -78.368    1032.827
  N      -77.755     -78.924    1032.003
  C      -78.102     -79.998    1031.180
  O      -79.254     -80.445    1031.197
  N      -77.132     -80.576    1030.395
  C      -75.914     -80.142    1030.467
  N      -75.000     -80.758    1029.673
  C      -75.488     -79.041    1031.383
  C      -76.446     -78.473    1032.101
  O      -75.753     -74.143    1035.433
  O      -75.875     -75.908    1037.270
  H      -78.852     -80.295    1035.587
  H      -75.582     -75.132    1037.779
  H      -74.453     -78.741    1031.406
  H      -76.238     -77.673    1032.787
  H      -79.793     -78.684    1032.418
  H      -77.661     -78.645    1034.649
  H      -79.465     -77.653    1036.033
  H      -80.180     -75.885    1033.976
  H      -75.330     -81.503    1029.076
  H      -77.896     -74.822    1034.128
  H      -74.001     -80.527    1029.656
  H      -78.596     -75.168    1035.719
  P      -82.217     -77.425    1035.506
  C      -84.583     -76.470    1035.056
  O      -83.466     -77.199    1034.513
  O      -81.836     -76.213    1036.291
  O      -82.737     -78.599    1036.476
  H      -83.105     -78.197    1037.279
  H      -85.347     -76.382    1034.312
  H      -84.261     -75.494    1035.354
  H      -84.971     -76.992    1035.906

 6  7  8  9  10  11  12  13  14  15  16  26  30  31  32  33  35 0
 6-311+G(2d,p)
 ****
 37  38 0
 6-311+G(2d,p)
 ****
 1  2  3  4  5  17  18  19  20  21  22  23  24  25 0
 3-21G
 ****
 27  28  29  34  36  39  40  41  42  43  44  45  46 0
 3-21G
 ****


