%nproc=1
%NoSave
%Mem=1900MB
#P OB98/GEN NMR

erre ene a

0 1
  C       52.489     -73.309     -15.026
  O       53.708     -72.943     -15.644
  H       51.911     -73.958     -15.688
  H       52.713     -73.854     -14.106
  H       51.908     -72.416     -14.775
  P       53.596     -72.102     -17.005
  C       53.531     -74.284     -18.408
  O       52.882     -73.067     -18.070
  C       53.688     -74.392     -19.921
  O       54.613     -75.448     -20.251
  C       52.402     -74.724     -20.672
  O       51.585     -73.577     -20.853
  C       52.967     -75.220     -21.995
  O       53.346     -74.097     -22.813
  C       54.219     -75.986     -21.541
  N       55.739     -80.618     -23.092
  C       56.207     -79.380     -23.356
  N       55.763     -78.195     -22.889
  C       54.732     -78.374     -22.049
  C       54.157     -79.574     -21.665
  C       54.698     -80.740     -22.230
  N       54.164     -81.999     -22.004
  N       53.103     -79.357     -20.797
  C       53.035     -78.048     -20.677
  N       54.000     -77.412     -21.408
  O       55.117     -72.036     -17.508
  O       53.000     -70.741     -16.864
  H       53.955     -73.553     -22.278
  H       55.508     -71.186     -17.233
  H       57.051     -79.333     -24.038
  H       52.304     -77.519     -20.078
  H       55.063     -75.839     -22.223
  H       52.252     -75.814     -22.572
  H       51.853     -75.540     -20.190
  H       54.118     -73.449     -20.284
  H       52.937     -75.128     -18.045
  H       54.307     -82.644     -22.776
  H       53.246     -81.993     -21.577
  H       54.511     -74.304     -17.923
  P       49.997     -73.766     -20.731
  C       49.821     -73.979     -23.303
  O       49.532     -74.568     -22.043
  O       49.444     -72.284     -20.975
  O       49.518     -74.316     -19.433
  H       48.888     -72.011     -20.219
  H       49.459     -74.614     -24.085
  H       50.879     -73.856     -23.405
  H       49.343     -73.024     -23.368

 6  7  8  9  10  11  12  13  14  15  25  28  32  33  34  35 0
 6-311+G(2d,p)
 ****
 36  39  40 0
 6-311+G(2d,p)
 ****
 1  2  3  4  5  16  17  18  19  20  21  22  23  24 0
 3-21G
 ****
 26  27  29  30  31  37  38  41  42  43  44  45  46  47  48 0
 3-21G
 ****


