%nproc=1
%NoSave
%Mem=1900MB
#P OB98/GEN NMR

erre ene a

0 1
  C      143.987    -224.360    -418.563
  O      143.172    -224.544    -419.730
  P      142.830    -226.049    -420.164
  C      144.749    -226.745    -421.763
  O      144.201    -226.833    -420.460
  C      145.992    -227.628    -421.921
  O      147.146    -227.031    -421.246
  C      145.820    -229.029    -421.327
  O      146.642    -229.943    -422.083
  C      146.413    -228.883    -419.939
  O      146.753    -230.149    -419.369
  C      147.598    -227.963    -420.243
  N      149.461    -228.557    -415.585
  C      149.050    -229.502    -416.510
  N      149.192    -230.797    -416.153
  N      148.552    -229.207    -417.681
  C      148.505    -227.864    -417.919
  C      148.872    -226.835    -417.073
  C      149.402    -227.186    -415.781
  O      149.766    -226.384    -414.909
  N      148.650    -225.610    -417.667
  C      148.143    -225.906    -418.848
  N      148.069    -227.260    -419.061
  O      142.185    -225.860    -421.623
  O      141.880    -226.743    -419.241
  H      147.104    -229.979    -418.464
  H      141.223    -226.024    -421.583
  H      149.831    -228.852    -414.697
  H      147.806    -225.179    -419.583
  H      148.459    -228.508    -420.652
  H      145.690    -228.390    -419.282
  H      149.617    -231.097    -415.290
  H      144.789    -229.391    -421.312
  H      148.939    -231.509    -416.828
  H      146.247    -227.697    -422.989
  H      145.019    -225.703    -421.993
  H      143.979    -227.012    -422.502
  P      145.908    -230.813    -423.212
  C      146.511    -233.014    -421.969
  O      145.493    -232.196    -422.514
  O      147.097    -231.235    -424.196
  O      144.806    -230.104    -423.936
  H      146.761    -231.416    -425.088
  H      146.517    -232.910    -420.880
  H      147.506    -232.757    -422.366
  H      146.293    -234.061    -422.227
  H      144.134    -223.314    -418.392
  H      144.935    -224.834    -418.712
  H      143.500    -224.795    -417.715

 3  4  5  6  7  8  9  10  11  12  23  26  30  31 0
 6-311+G(2d,p)
 ****
 33  35  36  37  38 0
 6-311+G(2d,p)
 ****
 1  2  13  14  15  16  17  18  19  20  21  22  24  25 0
 3-21G
 ****
 27  28  29  32  34  39  40  41  42  43  44  45  46  47  48  49 0
 3-21G
 ****


