%nproc=1
%NoSave
%Mem=1900MB
#P OB98/GEN NMR

erre ene a

0 1
  C       36.733     246.022      92.192
  O       36.077     246.268      93.425
  P       34.725     245.454      93.724
  C       36.187     243.571      94.757
  O       35.130     243.908      93.867
  C       36.099     242.103      95.176
  O       37.331     241.737      95.861
  C       34.934     241.777      96.124
  O       34.490     240.456      95.792
  C       35.610     241.806      97.482
  O       34.870     241.170      98.512
  C       36.951     241.166      97.132
  N       39.964     239.006     100.653
  C       39.095     238.475      99.762
  N       38.334     239.113      98.849
  C       38.540     240.439      98.903
  C       39.376     241.125      99.767
  C       40.114     240.350     100.677
  N       40.992     240.896     101.593
  N       39.305     242.485      99.546
  C       38.439     242.618      98.563
  N       37.966     241.410      98.131
  O       33.957     245.502      92.322
  O       33.891     246.004      94.840
  H       34.744     240.226      98.296
  H       32.997     245.617      92.449
  H       39.000     237.392      99.785
  H       38.111     243.559      98.143
  H       36.865     240.080      96.998
  H       35.750     242.851      97.787
  H       34.094     242.469      96.030
  H       36.036     241.487      94.270
  H       36.113     244.190      95.657
  H       41.315     240.281     102.325
  H       40.940     241.896     101.740
  H       37.147     243.787      94.277
  P       32.923     240.122      95.868
  C       32.557     241.637      93.825
  O       32.225     241.393      95.179
  O       32.627     240.395      97.421
  O       32.519     238.772      95.386
  H       32.965     241.265      97.701
  H       31.943     242.462      93.458
  H       32.358     240.749      93.219
  H       33.611     241.917      93.745
  H       37.612     246.629      92.129
  H       36.075     246.263      91.384
  H       37.007     244.989      92.134

 3  4  5  6  7  8  9  10  11  12  22  25  29  30  31  32 0
 6-311+G(2d,p)
 ****
 33  36  37 0
 6-311+G(2d,p)
 ****
 1  2  13  14  15  16  17  18  19  20  21  23  24  26 0
 3-21G
 ****
 27  28  34  35  38  39  40  41  42  43  44  45  46  47  48 0
 3-21G
 ****


