%nproc=1
%NoSave
%Mem=1900MB
#P OB98/GEN NMR

erre ene a

0 1
  C     -172.583      10.435      50.797
  O     -173.415       9.487      50.153
  P     -174.647       8.868      50.970
  C     -174.781       7.143      52.945
  O     -174.015       8.087      52.223
  C     -174.185       6.933      54.343
  O     -173.940       8.233      54.950
  C     -175.081       6.140      55.305
  O     -174.220       5.353      56.137
  C     -175.753       7.235      56.117
  O     -176.239       6.769      57.368
  C     -174.611       8.251      56.225
  N     -175.066       9.608      56.542
  C     -174.546      10.217      57.680
  O     -173.746       9.677      58.442
  N     -175.004      11.483      57.937
  C     -175.957      12.156      57.228
  O     -176.343      13.282      57.513
  C     -176.505      11.443      56.065
  C     -176.036      10.227      55.776
  O     -175.120       7.702      49.982
  O     -175.698       9.866      51.319
  H     -174.381       7.278      49.514
  H     -176.700       7.508      57.807
  H     -174.614      11.959      58.738
  H     -177.273      11.938      55.483
  H     -176.425       9.681      54.925
  H     -173.886       7.924      56.978
  H     -176.600       7.640      55.552
  H     -175.786       5.492      54.782
  H     -173.212       6.437      54.230
  H     -174.780       6.187      52.415
  H     -175.815       7.489      53.016
  P     -174.583       3.799      56.351
  C     -176.223       2.482      57.909
  O     -175.739       3.728      57.455
  O     -173.284       3.316      57.163
  O     -174.805       3.025      55.096
  H     -173.059       3.902      57.898
  H     -176.735       2.628      58.865
  H     -175.412       1.763      58.058
  H     -176.937       2.081      57.186
  H     -171.813      10.750      50.124
  H     -172.139       9.990      51.663
  H     -173.168      11.282      51.091

 3  4  5  6  7  8  9  10  11  12  13  24  28  29  30  31  32 0
 6-311+G(2d,p)
 ****
 33  34 0
 6-311+G(2d,p)
 ****
 1  2  14  15  16  17  18  19  20  21  22  23  25  26  27 0
 3-21G
 ****
 35  36  37  38  39  40  41  42  43  44  45 0
 3-21G
 ****


