%nproc=1
%NoSave
%Mem=1900MB
#P OB98/GEN NMR

erre ene a

0 1
  C     -144.167     179.117    -102.284
  O     -145.325     179.646    -101.667
  H     -144.245     179.266    -103.363
  H     -144.088     178.046    -102.080
  H     -143.275     179.632    -101.918
  P     -145.399     179.544    -100.069
  C     -146.446     180.986     -98.175
  O     -146.237     180.819     -99.572
  C     -147.467     182.095     -97.939
  O     -146.948     183.350     -98.441
  C     -148.789     181.883     -98.666
  O     -149.626     180.953     -98.005
  C     -149.344     183.298     -98.681
  O     -150.006     183.614     -97.450
  C     -148.082     184.154     -98.842
  N     -147.343     188.273    -101.762
  C     -147.391     188.115    -100.423
  N     -147.580     186.978     -99.720
  C     -147.700     185.926    -100.547
  C     -147.669     185.933    -101.931
  C     -147.477     187.181    -102.548
  N     -147.455     187.346    -103.912
  N     -147.868     184.661    -102.427
  C     -148.008     183.896    -101.363
  N     -147.910     184.616    -100.204
  O     -143.899     179.874     -99.617
  O     -145.864     178.230     -99.539
  H     -150.802     183.047     -97.412
  H     -143.430     179.042     -99.417
  H     -147.271     189.022     -99.837
  H     -148.188     182.829    -101.381
  H     -148.097     185.041     -98.197
  H     -150.067     183.422     -99.486
  H     -148.603     181.567     -99.701
  H     -147.628     182.200     -96.858
  H     -145.500     181.258     -97.696
  H     -146.800     180.040     -97.754
  H     -147.381     188.278    -104.286
  H     -147.668     186.554    -104.505
  P     -150.998     180.543     -98.724
  C     -152.787     178.715     -98.225
  O     -151.425     179.108     -98.153
  O     -150.564     180.239    -100.233
  O     -152.069     181.580     -98.653
  H     -151.271     180.520    -100.846
  H     -152.899     177.738     -97.803
  H     -153.100     178.700     -99.248
  H     -153.388     179.411     -97.678

 6  7  8  9  10  11  12  13  14  15  25  28  32  33  34  35 0
 6-311+G(2d,p)
 ****
 36  37  40 0
 6-311+G(2d,p)
 ****
 1  2  3  4  5  16  17  18  19  20  21  22  23  24 0
 3-21G
 ****
 26  27  29  30  31  38  39 41  42  43  44  45  46  47  48 0
 3-21G
 ****


