%nproc=1
%NoSave
%Mem=1900MB
#P OB98/GEN NMR

erre ene a

0 1
  C      289.938     221.090    -123.581
  O      289.132     222.261    -123.417
  P      288.114     222.247    -122.171
  C      288.863     224.664    -121.597
  O      287.773     223.772    -121.795
  C      288.518     226.085    -122.052
  O      288.167     226.113    -123.465
  C      287.333     226.704    -121.291
  O      287.608     228.110    -121.172
  C      286.174     226.503    -122.247
  O      285.083     227.369    -121.945
  C      286.879     226.767    -123.573
  N      283.328     227.946    -126.968
  C      283.758     228.638    -125.858
  N      283.202     229.851    -125.645
  N      284.662     228.192    -125.024
  C      285.167     226.979    -125.384
  C      284.837     226.196    -126.473
  C      283.806     226.703    -127.364
  O      283.395     226.130    -128.363
  N      285.591     225.053    -126.516
  C      286.324     225.115    -125.414
  N      286.155     226.287    -124.728
  O      289.036     221.747    -120.957
  O      286.932     221.363    -122.367
  H      284.771     227.132    -121.046
  H      288.883     220.802    -120.784
  H      282.619     228.332    -127.563
  H      287.018     224.354    -125.086
  H      287.054     227.841    -123.746
  H      285.815     225.464    -122.198
  H      282.534     230.276    -126.267
  H      287.152     226.268    -120.302
  H      283.531     230.397    -124.854
  H      289.407     226.713    -121.925
  H      289.735     224.315    -122.159
  H      289.154     224.644    -120.542
  P      287.804     228.709    -119.703
  C      290.044     229.943    -120.152
  O      288.664     230.056    -119.854
  O      288.841     227.683    -119.032
  O      286.555     228.819    -118.893
  H      288.601     227.542    -118.095
  H      290.362     230.850    -120.663
  H      290.248     229.084    -120.791
  H      290.608     229.840    -119.217
  H      290.572     221.210    -124.435
  H      289.306     220.239    -123.723
  H      290.539     220.946    -122.708

 3  4  5  6  7  8  9  10  11  12  23  26  30  31 0
 6-311+G(2d,p)
 ****
 33  35  36  37  38 0
 6-311+G(2d,p)
 ****
 1  2  13  14  15  16  17  18  19  20  21  22  24  25 0
 3-21G
 ****
 27  28  29  32  34  39  40  41  42  43  44  45  46  47  48  49 0
 3-21G
 ****


