%nproc=1
%NoSave
%Mem=1900MB
#P OB98/GEN NMR

erre ene a

0 1
  C     -204.337     -65.742     207.520
  O     -204.256     -67.144     207.331
  P     -203.057     -67.930     208.054
  C     -201.580     -67.976     205.870
  O     -201.734     -67.564     207.224
  C     -200.175     -67.638     205.375
  O     -200.003     -66.205     205.322
  C     -199.049     -68.151     206.263
  O     -198.826     -69.541     206.089
  C     -197.892     -67.257     205.821
  O     -197.321     -67.758     204.597
  C     -198.607     -65.916     205.567
  N     -198.449     -64.964     206.662
  C     -197.266     -64.231     206.677
  O     -196.385     -64.357     205.823
  N     -197.117     -63.354     207.720
  C     -197.984     -63.190     208.761
  O     -197.778     -62.423     209.693
  C     -199.198     -64.014     208.711
  C     -199.375     -64.850     207.682
  O     -203.398     -69.438     207.636
  O     -202.992     -67.679     209.525
  H     -203.890     -69.477     206.795
  H     -197.080     -68.691     204.769
  H     -196.278     -62.795     207.738
  H     -199.909     -63.918     209.526
  H     -200.258     -65.471     207.633
  H     -198.227     -65.453     204.646
  H     -197.088     -67.211     206.561
  H     -199.283     -67.947     207.319
  H     -200.067     -68.032     204.355
  H     -202.320     -67.459     205.257
  H     -201.766     -69.055     205.807
  P     -198.366     -70.366     207.394
  C     -195.792     -70.041     207.073
  O     -196.950     -69.762     207.832
  O     -198.012     -71.788     206.750
  O     -199.406     -70.414     208.468
  H     -197.520     -71.713     205.908
  H     -195.034     -69.283     207.297
  H     -196.006     -70.021     205.999
  H     -195.402     -71.025     207.349
  H     -205.179     -65.358     206.983
  H     -203.442     -65.281     207.158
  H     -204.451     -65.529     208.562

 3  4  5  6  7  8  9  10  11  12  13  24  28  29  30  31  32 0
 6-311+G(2d,p)
 ****
 33  34 0
 6-311+G(2d,p)
 ****
 1  2  14  15  16  17  18  19  20  21  22  23  25  26  27 0
 3-21G
 ****
 35  36  37  38  39  40  41  42  43  44  45 0
 3-21G
 ****


