%nproc=1
%NoSave
%Mem=1900MB
#P OB98/GEN NMR

erre ene a

0 1
  C     -898.490     374.082     898.569
  O     -897.810     373.105     899.338
  P     -896.250     372.815     899.070
  C     -894.160     372.532     900.551
  O     -895.570     372.738     900.523
  C     -893.640     372.692     902.003
  O     -894.120     373.918     902.578
  C     -894.040     371.581     902.957
  O     -893.260     370.409     902.721
  C     -893.810     372.234     904.296
  O     -892.450     372.163     904.677
  C     -894.220     373.710     904.000
  N     -895.550     374.026     904.512
  C     -895.620     374.385     905.868
  O     -894.600     374.379     906.571
  N     -896.860     374.682     906.417
  C     -897.910     374.595     905.691
  N     -899.100     374.914     906.285
  C     -897.900     374.206     904.273
  C     -896.700     373.932     903.776
  O     -895.590     373.737     898.100
  O     -896.260     371.282     898.590
  H     -891.950     372.787     904.093
  H     -896.590     371.189     897.670
  H     -898.810     374.162     903.695
  H     -896.580     373.625     902.707
  H     -893.520     374.394     904.473
  H     -894.420     371.769     905.096
  H     -895.120     371.354     902.833
  H     -892.530     372.761     901.946
  H     -899.070     375.145     907.265
  H     -893.700     373.292     899.919
  H     -900.000     374.842     905.819
  H     -893.930     371.528     900.168
  P     -893.670     369.026     903.427
  C     -893.560     366.516     902.872
  O     -893.260     367.843     902.447
  O     -895.080     368.957     903.945
  O     -892.600     368.890     904.616
  H     -893.090     368.607     905.431
  H     -893.530     365.854     902.002
  H     -894.540     366.465     903.336
  H     -892.810     366.198     903.590
  H     -899.511     374.137     898.885
  H     -898.451     373.812     897.534
  H     -898.022     375.034     898.708

 3  4  5  6  7  8  9  10  11  12  13  23  27  28  29  30  32 0
 6-311+G(2d,p)
 ****
 34  35 0
 6-311+G(2d,p)
 ****
 1  2  14  15  16  17  18  19  20  21  22  24  25  26 0
 3-21G
 ****
 31  33  36  37  38  39  40  41  42  43  44  45  46 0
 3-21G
 ****


