%nproc=1
%NoSave
%Mem=1900MB
#P OB98/GEN NMR

erre ene a

0 1
  C      -57.607     -84.532     707.405
  O      -57.359     -83.282     706.750
  P      -57.581     -83.205     705.160
  C      -55.939     -81.530     704.005
  O      -57.184     -81.719     704.674
  C      -55.848     -80.108     703.469
  O      -56.823     -79.852     702.430
  C      -56.076     -79.030     704.524
  O      -54.900     -78.761     705.276
  C      -56.418     -77.824     703.654
  O      -55.212     -77.245     703.139
  C      -57.232     -78.461     702.525
  N      -61.763     -78.254     700.273
  C      -60.490     -78.339     699.721
  N      -60.418     -78.366     698.374
  N      -59.402     -78.365     700.425
  C      -59.627     -78.353     701.773
  C      -60.830     -78.280     702.429
  C      -62.037     -78.223     701.627
  O      -63.183     -78.142     702.063
  N      -60.657     -78.270     703.791
  C      -59.347     -78.359     703.950
  N      -58.668     -78.398     702.753
  O      -59.179     -83.204     705.018
  O      -56.955     -84.322     704.398
  H      -54.751     -77.947     702.631
  H      -59.432     -83.591     704.164
  H      -62.570     -78.228     699.676
  H      -58.839     -78.400     704.911
  H      -57.049     -77.995     701.551
  H      -56.935     -77.039     704.216
  H      -61.227     -78.395     697.760
  H      -56.935     -79.280     705.163
  H      -59.504     -78.447     697.955
  H      -54.832     -79.964     703.037
  H      -55.839     -82.250     703.173
  H      -55.116     -81.762     704.695
  P      -54.483     -79.805     706.420
  C      -53.621     -77.992     708.068
  O      -53.310     -79.102     707.257
  O      -53.738     -80.963     705.593
  O      -55.629     -80.346     707.224
  H      -53.869     -81.825     706.034
  H      -52.751     -77.748     708.681
  H      -54.462     -78.219     708.727
  H      -53.865     -77.117     707.443
  H      -57.418     -84.429     708.453
  H      -56.962     -85.282     706.998
  H      -58.627     -84.818     707.253

 3  4  5  6  7  8  9  10  11  12  23  26  30  31 0
 6-311+G(2d,p)
 ****
 33  35  36  37  38 0
 6-311+G(2d,p)
 ****
 1  2  13  14  15  16  17  18  19  20  21  22  24  25 0
 3-21G
 ****
 27  28  29  32  34  39  40  41  42  43  44  45  46  47  48  49 0
 3-21G
 ****


