%nproc=1
%NoSave
%Mem=1900MB
#P OB98/GEN NMR

erre ene a

0 1
  C     -277.039    -576.689     353.272
  O     -277.736    -577.789     352.729
  H     -277.333    -575.783     352.732
  H     -275.961    -576.834     353.162
  H     -277.290    -576.568     354.332
  P     -277.442    -579.228     353.382
  C     -277.536    -580.409     351.074
  O     -278.082    -580.314     352.377
  C     -278.633    -580.753     350.062
  O     -279.228    -582.036     350.426
  C     -279.772    -579.721     350.002
  O     -280.203    -579.588     348.641
  C     -280.878    -580.381     350.804
  O     -282.170    -579.880     350.466
  C     -280.657    -581.848     350.447
  N     -285.115    -583.643     351.940
  C     -284.799    -582.782     350.911
  N     -285.825    -582.318     350.162
  N     -283.574    -582.397     350.637
  C     -282.647    -582.958     351.452
  C     -282.833    -583.819     352.511
  C     -284.191    -584.210     352.820
  O     -284.546    -584.958     353.728
  N     -281.639    -584.131     353.108
  C     -280.729    -583.467     352.410
  N     -281.294    -582.743     351.394
  O     -278.423    -579.265     354.649
  O     -276.021    -579.486     353.760
  H     -282.401    -580.215     349.573
  H     -278.042    -579.816     355.361
  H     -286.077    -583.894     352.113
  H     -279.665    -583.468     352.603
  H     -281.051    -582.099     349.459
  H     -280.719    -580.209     351.880
  H     -286.785    -582.590     350.291
  H     -279.496    -578.739     350.397
  H     -285.613    -581.690     349.394
  H     -278.174    -580.893     349.073
  H     -276.771    -581.193     351.060
  H     -277.080    -579.454     350.803
  P     -279.416    -578.545     347.710
  C     -281.302    -576.751     347.756
  O     -280.490    -577.609     346.963
  O     -278.844    -579.474     346.533
  O     -278.307    -577.819     348.413
  H     -277.887    -579.574     346.633
  H     -281.961    -576.196     347.121
  H     -280.679    -576.074     348.302
  H     -281.877    -577.338     348.442

 6  7  8  9  10  11  12  13  14  15  26  29  33  34 0
 6-311+G(2d,p)
 ****
 36  38  39  40  41 0
 6-311+G(2d,p)
 ****
 1  2  3  4  5  16  17  18  19  20  21  22  23  24  25 0
 3-21G
 ****
 27  28  30  31  32  35  37  42  43  44  45  46  47 0
 3-21G
 ****
 48  49 0
 3-21G
 ****


