%nproc=1
%NoSave
%Mem=1900MB
#P OB98/GEN NMR

erre ene a

0 1
  C     -742.211    -212.427    -148.898
  O     -741.292    -212.264    -147.843
  P     -740.177    -213.370    -147.552
  C     -738.491    -211.575    -146.801
  O     -739.206    -212.751    -146.427
  C     -737.916    -210.893    -145.556
  O     -737.341    -211.868    -144.648
  C     -736.780    -209.926    -145.847
  O     -737.090    -208.762    -146.584
  C     -736.197    -209.736    -144.457
  O     -736.944    -208.783    -143.704
  C     -736.360    -211.160    -143.856
  N     -735.087    -211.877    -143.805
  C     -734.423    -211.852    -142.580
  O     -734.851    -211.284    -141.584
  N     -733.222    -212.498    -142.539
  C     -732.601    -213.114    -143.597
  O     -731.498    -213.634    -143.499
  C     -733.341    -213.090    -144.870
  C     -734.529    -212.481    -144.916
  O     -739.472    -213.902    -148.758
  O     -740.972    -214.490    -146.724
  H     -736.539    -208.725    -142.818
  H     -741.363    -214.174    -145.893
  H     -732.721    -212.487    -141.673
  H     -732.883    -213.576    -145.720
  H     -735.093    -212.451    -145.841
  H     -736.762    -211.098    -142.838
  H     -735.160    -209.374    -144.503
  H     -736.023    -210.459    -146.445
  H     -738.744    -210.403    -145.029
  H     -739.183    -210.887    -147.303
  H     -737.705    -211.835    -147.512
  P     -736.166    -208.198    -147.762
  C     -738.236    -206.932    -148.683
  O     -736.861    -206.877    -148.356
  O     -735.631    -209.200    -148.739
  O     -734.930    -207.579    -146.936
  H     -734.125    -207.647    -147.475
  H     -738.521    -205.968    -149.113
  H     -738.837    -207.109    -147.781
  H     -738.426    -207.716    -149.427
  H     -742.871    -211.586    -148.929
  H     -742.779    -213.320    -148.742
  H     -741.681    -212.499    -149.825

 3  4  5  6  7  8  9  10  11  12  13  23  28  29  30  31  32 0
 6-311+G(2d,p)
 ****
 33  34 0
 6-311+G(2d,p)
 ****
 1  2  14  15  16  17  18  19  20  21  22  24  25  26  27 0
 3-21G
 ****
 35  36  37  38  39  40  41  42  43  44  45 0
 3-21G
 ****


