%nproc=1
%NoSave
%Mem=1900MB
#P OB98/GEN NMR

erre ene a

0 1
  C     -193.332     576.094    -185.025
  O     -194.249     575.231    -184.343
  P     -195.245     574.368    -185.263
  C     -197.562     575.523    -185.054
  O     -196.380     575.347    -185.825
  C     -198.690     576.058    -185.932
  O     -198.438     577.423    -186.351
  C     -198.878     575.272    -187.222
  O     -199.519     574.033    -186.973
  C     -199.701     576.257    -188.044
  O     -201.084     576.222    -187.645
  C     -199.082     577.607    -187.639
  N     -198.468     579.775    -192.230
  C     -199.576     579.402    -191.553
  N     -199.654     578.826    -190.330
  C     -198.429     578.657    -189.804
  C     -197.211     578.996    -190.374
  C     -197.258     579.579    -191.654
  N     -196.132     579.952    -192.359
  N     -196.171     578.671    -189.537
  C     -196.744     578.123    -188.488
  N     -198.108     578.104    -188.592
  O     -196.018     573.450    -184.205
  O     -194.540     573.550    -186.297
  H     -201.448     575.362    -187.930
  H     -195.719     572.524    -184.286
  H     -200.522     579.579    -192.052
  H     -196.217     577.725    -187.623
  H     -199.839     578.391    -187.511
  H     -199.668     576.056    -189.118
  H     -197.907     575.096    -187.706
  H     -199.613     576.044    -185.344
  H     -197.370     576.217    -184.229
  H     -196.251     580.284    -193.299
  H     -195.223     579.728    -191.973
  H     -197.830     574.565    -184.599
  P     -198.716     572.688    -187.332
  C     -199.959     572.344    -189.552
  O     -198.721     572.658    -188.939
  O     -199.786     571.566    -186.950
  O     -197.378     572.566    -186.686
  H     -200.675     571.782    -187.295
  H     -199.830     572.392    -190.638
  H     -200.731     573.060    -189.251
  H     -200.262     571.330    -189.277
  H     -192.728     576.610    -184.308
  H     -193.878     576.805    -185.609
  H     -192.705     575.512    -185.667

 3  4  5  6  7  8  9  10  11  12  22  25  29  30  31  32 0
 6-311+G(2d,p)
 ****
 33  36  37 0
 6-311+G(2d,p)
 ****
 1  2  13  14  15  16  17  18  19  20  21  23  24  26 0
 3-21G
 ****
 27  28  34  35  38  39  40  41  42  43  44  45  46  47  48 0
 3-21G
 ****


