%nproc=1
%NoSave
%Mem=1900MB
#P OB98/GEN NMR

erre ene a

0 1
  C      352.111    -527.425     -62.944
  O      352.187    -527.221     -64.337
  H      353.112    -527.306     -62.521
  H      351.760    -528.442     -62.738
  H      351.440    -526.703     -62.471
  P      350.842    -526.904     -65.145
  C      351.709    -524.487     -65.432
  O      350.604    -525.314     -65.093
  C      351.779    -524.215     -66.935
  O      350.572    -523.555     -67.385
  C      352.931    -523.282     -67.310
  O      354.189    -523.906     -67.476
  C      352.437    -522.683     -68.623
  O      352.768    -523.545     -69.734
  C      350.919    -522.631     -68.424
  N      350.738    -517.671     -69.684
  C      351.422    -518.701     -70.296
  N      352.212    -518.353     -71.337
  N      351.363    -519.948     -69.905
  C      350.610    -520.136     -68.790
  C      349.881    -519.191     -68.089
  C      349.919    -517.825     -68.566
  O      349.325    -516.871     -68.060
  N      349.238    -519.751     -67.011
  C      349.635    -521.012     -67.020
  N      350.441    -521.301     -68.098
  O      349.682    -527.459     -64.183
  O      350.747    -527.520     -66.508
  H      352.388    -523.165     -70.543
  H      348.901    -527.701     -64.712
  H      350.786    -516.742     -70.046
  H      349.344    -521.760     -66.289
  H      350.389    -522.955     -69.330
  H      352.898    -521.710     -68.830
  H      352.384    -517.397     -71.597
  H      353.011    -522.471     -66.574
  H      352.933    -519.020     -71.638
  H      351.839    -525.168     -67.474
  H      352.607    -525.015     -65.110
  H      351.668    -523.545     -64.872
  P      355.535    -523.045     -67.340
  C      356.306    -524.024     -65.047
  O      355.843    -522.902     -65.771
  O      355.066    -521.587     -67.779
  O      356.679    -523.535     -68.168
  H      355.277    -521.427     -68.718
  H      356.458    -523.750     -64.024
  H      357.230    -524.363     -65.467
  H      355.580    -524.808     -65.102

 6  7  8  9  10  11  12  13  14  15  26  29  33  34 0
 6-311+G(2d,p)
 ****
 36  38  39  40  41 0
 6-311+G(2d,p)
 ****
 1  2  3  4  5  16  17  18  19  20  21  22  23  24  25 0
 3-21G
 ****
 27  28  30  31  32  35  37  42  43  44  45  46  47 0
 3-21G
 ****
 48  49 0
 3-21G
 ****


