%nproc=1
%NoSave
%Mem=1900MB
#P OB98/GEN NMR

erre ene a

0 1
  C      463.034     222.710    -141.496
  O      463.156     222.963    -140.110
  H      463.072     223.662    -142.032
  H      462.072     222.225    -141.703
  H      463.854     222.073    -141.842
  P      463.295     221.687    -139.150
  C      460.958     221.286    -138.022
  O      461.851     220.980    -139.084
  C      460.341     222.667    -138.243
  O      459.689     222.749    -139.526
  C      459.235     223.011    -137.254
  O      459.722     223.271    -135.958
  C      458.625     224.228    -137.939
  O      459.414     225.403    -137.706
  C      458.694     223.807    -139.427
  N      457.402     223.380    -139.950
  C      456.526     224.412    -140.317
  O      456.866     225.589    -140.205
  N      455.273     224.076    -140.775
  C      454.937     222.829    -140.886
  N      453.680     222.565    -141.337
  C      455.841     221.713    -140.534
  C      457.040     222.057    -140.071
  O      463.432     222.352    -137.702
  O      464.398     220.741    -139.502
  H      460.266     225.257    -138.165
  H      462.718     222.978    -137.491
  H      455.519     220.687    -140.646
  H      457.761     221.302    -139.789
  H      459.054     224.636    -140.049
  H      457.618     224.447    -137.573
  H      458.475     222.219    -137.242
  H      461.149     223.411    -138.219
  H      453.084     223.357    -141.548
  H      461.468     221.242    -137.055
  H      453.296     221.636    -141.431
  H      460.175     220.520    -138.017
  P      458.709     223.582    -134.753
  C      458.767     226.017    -133.918
  O      458.276     225.122    -134.915
  O      459.207     223.217    -133.392
  O      457.374     222.810    -135.186
  H      456.991     223.101    -136.036
  H      458.419     227.007    -134.125
  H      459.837     226.007    -133.925
  H      458.414     225.708    -132.956

 6  7  8  9  10  11  12  13  14  15  16  26  30  31  32  33  35 0
 6-311+G(2d,p)
 ****
 37  38 0
 6-311+G(2d,p)
 ****
 1  2  3  4  5  17  18  19  20  21  22  23  24  25 0
 3-21G
 ****
 27  28  29  34  36  39  40  41  42  43  44  45  46 0
 3-21G
 ****


