%nproc=1
%NoSave
%Mem=1900MB
#P OB98/GEN NMR

erre ene a

0 1
  C      126.422    -722.854    -893.250
  O      125.294    -723.196    -892.460
  H      127.309    -723.351    -892.830
  H      126.587    -721.772    -893.220
  H      126.270    -723.183    -894.280
  P      123.878    -722.597    -892.940
  C      122.625    -724.896    -892.880
  O      123.113    -723.799    -893.660
  C      121.751    -725.821    -893.720
  O      120.738    -725.022    -894.410
  C      122.539    -726.570    -894.800
  O      121.876    -727.859    -895.050
  C      122.336    -725.673    -896.030
  O      122.638    -726.344    -897.200
  C      120.868    -725.288    -895.820
  N      117.157    -723.271    -898.700
  C      117.201    -724.419    -897.960
  N      118.227    -724.848    -897.180
  C      119.287    -724.007    -897.240
  C      119.379    -722.833    -897.960
  C      118.247    -722.466    -898.740
  N      118.192    -721.321    -899.480
  N      120.599    -722.225    -897.770
  C      121.260    -723.067    -896.950
  N      120.472    -724.138    -896.620
  O      124.288    -721.619    -894.150
  O      123.099    -721.859    -891.880
  H      123.605    -726.493    -897.300
  H      124.421    -720.720    -893.800
  H      116.302    -724.986    -897.960
  H      122.270    -722.926    -896.590
  H      120.158    -726.130    -896.070
  H      122.993    -724.770    -895.970
  H      123.600    -726.734    -894.570
  H      121.233    -726.539    -893.060
  H      122.028    -724.485    -892.010
  H      123.495    -725.462    -892.470
  H      117.343    -721.135    -900.000
  H      119.014    -720.692    -899.560
  P      122.463    -729.177    -894.380
  C      120.797    -729.010    -892.350
  O      122.154    -729.167    -892.770
  O      124.062    -728.855    -894.360
  O      122.171    -730.462    -895.090
  H      124.563    -729.647    -894.670
  H      120.751    -729.023    -891.281
  H      120.207    -729.812    -892.742
  H      120.417    -728.078    -892.712

 6  7  8  9  10  11  12  13  14  15  25  28  32  33  34  35 0
 6-311+G(2d,p)
 ****
 36  37  40 0
 6-311+G(2d,p)
 ****
 1  2  3  4  5  16  17  18  19  20  21  22  23  24 0
 3-21G
 ****
 26  27  29  30  31  38  39 41  42  43  44  45  46  47  48 0
 3-21G
 ****


