%nproc=1
%NoSave
%Mem=1900MB
#P OB98/GEN NMR

erre ene a

0 1
  C     -265.045    -393.320     691.905
  O     -264.368    -392.091     691.711
  H     -264.570    -393.852     692.736
  H     -264.971    -393.932     691.002
  H     -266.097    -393.146     692.151
  P     -265.011    -391.073     690.650
  C     -264.475    -388.836     691.927
  O     -265.458    -389.755     691.463
  C     -265.076    -387.934     693.005
  O     -265.303    -388.658     694.229
  C     -264.165    -386.786     693.427
  O     -264.046    -385.790     692.434
  C     -264.878    -386.321     694.686
  O     -266.016    -385.507     694.370
  C     -265.316    -387.674     695.295
  N     -264.483    -388.086     696.424
  C     -265.042    -387.902     697.704
  O     -266.180    -387.433     697.817
  N     -264.291    -388.225     698.789
  C     -263.095    -388.713     698.642
  N     -262.397    -389.000     699.774
  C     -262.479    -388.938     697.315
  C     -263.219    -388.603     696.266
  O     -266.411    -391.765     690.305
  O     -264.161    -390.768     689.464
  H     -266.642    -386.085     693.912
  H     -266.950    -391.971     691.086
  H     -261.482    -389.350     697.238
  H     -262.841    -388.734     695.259
  H     -266.357    -387.610     695.659
  H     -264.219    -385.724     695.321
  H     -263.173    -387.171     693.713
  H     -266.042    -387.561     692.640
  H     -262.842    -388.812     700.661
  H     -264.076    -388.247     691.102
  H     -261.443    -389.350     699.775
  H     -263.650    -389.424     692.346
  P     -262.600    -385.352     691.886
  C     -263.286    -385.894     689.458
  O     -262.360    -386.166     690.519
  O     -261.485    -385.466     692.880
  O     -262.853    -383.853     691.354
  H     -263.511    -383.782     690.655
  H     -263.033    -386.486     688.603
  H     -263.238    -384.857     689.200
  H     -264.278    -386.136     689.779

 6  7  8  9  10  11  12  13  14  15  16  26  30  31  32  33  35 0
 6-311+G(2d,p)
 ****
 37  38 0
 6-311+G(2d,p)
 ****
 1  2  3  4  5  17  18  19  20  21  22  23  24  25 0
 3-21G
 ****
 27  28  29  34  36  39  40  41  42  43  44  45  46 0
 3-21G
 ****


