%nproc=1
%NoSave
%Mem=1900MB
#P OB98/GEN NMR

erre ene a

0 1
  C       20.309     -99.308      17.090
  O       20.387    -100.711      16.957
  H       19.268     -99.003      16.957
  H       20.917     -98.816      16.328
  H       20.639     -99.000      18.087
  P       21.824    -101.415      17.047
  C       22.018    -102.707      14.821
  O       22.376    -101.535      15.545
  C       22.922    -102.866      13.591
  O       22.643    -101.763      12.695
  C       24.414    -102.833      13.951
  O       25.134    -103.951      13.437
  C       24.846    -101.439      13.510
  O       26.216    -101.328      13.189
  C       23.889    -101.126      12.356
  N       23.690     -99.696      12.126
  C       24.786     -98.962      11.682
  O       25.902     -99.424      11.456
  N       24.561     -97.623      11.485
  C       23.387     -96.965      11.698
  O       23.246     -95.763      11.502
  C       22.274     -97.789      12.195
  C       22.474     -99.095      12.383
  O       21.872    -102.683      17.832
  O       22.768    -100.291      17.687
  H       26.411    -102.009      12.510
  H       22.951    -100.513      18.620
  H       25.342     -97.083      11.149
  H       21.331     -97.296      12.386
  H       21.674     -99.733      12.747
  H       24.253    -101.562      11.425
  H       24.651    -100.741      14.333
  H       24.555    -102.920      15.035
  H       22.650    -103.792      13.072
  H       20.973    -102.607      14.513
  H       22.118    -103.584      15.469
  P       25.820    -105.085      14.323
  C       28.147    -103.861      14.290
  O       27.104    -104.462      15.044
  O       25.997    -106.411      13.663
  O       24.789    -105.288      15.547
  H       24.852    -106.231      15.804
  H       28.909    -103.508      14.953
  H       27.754    -103.039      13.729
  H       28.564    -104.583      13.620

 6  7  8  9  10  11  12  13  14  15  16  26  31  32  33  34  35 0
 6-311+G(2d,p)
 ****
 36  37 0
 6-311+G(2d,p)
 ****
 1  2  3  4  5  17  18  19  20  21  22  23  24  25 0
 3-21G
 ****
 27  28  29  30  38  39  40  41  42  43  44  45 0
 3-21G
 ****


