%nproc=1
%NoSave
%Mem=1900MB
#P OB98/GEN NMR

erre ene a

0 1
  C     -166.519    -201.231      19.051
  O     -167.795    -200.795      18.627
  P     -168.531    -201.504      17.389
  C     -168.020    -201.770      14.877
  O     -167.539    -201.312      16.142
  C     -168.067    -200.620      13.870
  O     -166.773    -199.974      13.771
  C     -168.418    -201.057      12.448
  O     -169.806    -201.298      12.332
  C     -167.912    -199.866      11.642
  O     -168.870    -198.791      11.640
  C     -166.643    -199.453      12.433
  N     -165.412    -199.913      11.791
  C     -164.886    -199.070      10.812
  O     -165.469    -198.024      10.506
  N     -163.739    -199.452      10.160
  C     -163.188    -200.595      10.458
  N     -162.057    -200.915       9.763
  C     -163.737    -201.521      11.464
  C     -164.842    -201.125      12.084
  O     -169.943    -201.081      17.156
  O     -168.393    -203.064      17.727
  H     -168.506    -198.102      11.037
  H     -169.002    -203.334      18.451
  H     -163.238    -202.465      11.658
  H     -165.305    -201.745      12.833
  H     -166.597    -198.360      12.534
  H     -167.715    -200.125      10.600
  H     -167.837    -201.947      12.179
  H     -168.788    -199.876      14.228
  H     -161.730    -200.267       9.065
  H     -169.029    -202.172      15.013
  H     -161.565    -201.799       9.882
  H     -167.374    -202.585      14.511
  P     -170.335    -202.475      11.373
  C     -170.123    -203.038       8.882
  O     -170.109    -202.011       9.865
  O     -171.701    -202.998      11.698
  O     -169.235    -203.630      11.570
  H     -169.688    -204.481      11.668
  H     -170.295    -202.580       7.901
  H     -170.927    -203.760       9.085
  H     -169.165    -203.559       8.875
  H     -166.198    -200.639      19.883
  H     -165.821    -201.125      18.247
  H     -166.572    -202.259      19.344

 3  4  5  6  7  8  9  10  11  12  13  23  27  28  29  30  32 0
 6-311+G(2d,p)
 ****
 34  35 0
 6-311+G(2d,p)
 ****
 1  2  14  15  16  17  18  19  20  21  22  24  25  26 0
 3-21G
 ****
 31  33  36  37  38  39  40  41  42  43  44  45  46 0
 3-21G
 ****


