%nproc=1
%NoSave
%Mem=1900MB
#P OB98/GEN NMR

erre ene a

0 1
  C      434.049    -348.248     -24.399
  O      433.672    -349.339     -25.232
  P      433.334    -350.736     -24.512
  C      435.505    -351.888     -25.351
  O      434.731    -351.474     -24.233
  C      436.077    -353.291     -25.129
  O      436.990    -353.254     -23.999
  C      435.023    -354.369     -24.839
  O      435.498    -355.583     -25.431
  C      435.062    -354.449     -23.319
  O      434.473    -355.624     -22.784
  C      436.563    -354.284     -23.082
  N      438.126    -356.044     -18.533
  C      437.969    -356.652     -19.735
  N      437.563    -356.122     -20.908
  C      437.302    -354.803     -20.760
  C      437.392    -354.058     -19.593
  C      437.829    -354.727     -18.449
  N      437.972    -354.103     -17.222
  N      437.018    -352.745     -19.831
  C      436.705    -352.709     -21.116
  N      436.880    -353.922     -21.721
  O      432.690    -351.601     -25.695
  O      432.419    -350.633     -23.327
  H      434.935    -356.413     -23.134
  H      431.948    -352.145     -25.372
  H      438.213    -357.712     -19.756
  H      436.336    -351.841     -21.643
  H      437.121    -355.202     -23.324
  H      434.511    -353.598     -22.904
  H      434.031    -354.135     -25.238
  H      436.666    -353.567     -26.013
  H      436.343    -351.196     -25.493
  H      438.098    -354.709     -16.419
  H      437.559    -353.187     -17.119
  H      434.887    -351.853     -26.254
  P      434.492    -356.452     -26.339
  C      433.666    -357.713     -24.258
  O      433.315    -356.854     -25.321
  O      435.295    -357.824     -26.461
  O      434.098    -355.834     -27.640
  H      435.590    -358.148     -25.588
  H      432.802    -357.827     -23.594
  H      434.500    -357.284     -23.679
  H      433.951    -358.696     -24.646
  H      434.244    -347.388     -25.005
  H      434.931    -348.506     -23.851
  H      433.255    -348.030     -23.715

 3  4  5  6  7  8  9  10  11  12  22  25  29  30  31  32 0
 6-311+G(2d,p)
 ****
 33  36  37 0
 6-311+G(2d,p)
 ****
 1  2  13  14  15  16  17  18  19  20  21  23  24  26 0
 3-21G
 ****
 27  28  34  35  38  39  40  41  42  43  44  45  46  47  48 0
 3-21G
 ****


