%nproc=1
%NoSave
%Mem=1900MB
#P OB98/GEN NMR

erre ene a

0 1
  C     -356.739      54.643       3.379
  O     -355.807      54.660       2.315
  H     -357.633      55.193       3.073
  H     -356.310      55.132       4.261
  H     -357.020      53.615       3.623
  P     -354.432      53.867       2.548
  C     -352.196      54.380       3.778
  O     -353.496      54.836       3.420
  C     -351.810      54.933       5.147
  O     -352.837      54.596       6.109
  C     -350.516      54.362       5.712
  O     -349.371      54.977       5.143
  C     -350.686      54.654       7.197
  O     -350.301      55.996       7.517
  C     -352.198      54.481       7.399
  N     -352.750      52.044      11.844
  C     -352.483      53.337      11.549
  N     -352.369      53.911      10.333
  C     -352.576      53.005       9.360
  C     -352.850      51.656       9.509
  C     -352.940      51.172      10.825
  N     -353.176      49.850      11.128
  N     -352.947      51.042       8.274
  C     -352.748      52.007       7.397
  N     -352.526      53.209       8.009
  O     -353.756      53.893       1.095
  O     -354.576      52.479       3.073
  H     -350.848      56.585       6.963
  H     -353.973      53.069       0.619
  H     -352.338      53.992      12.404
  H     -352.744      51.885       6.320
  H     -352.621      55.268       8.039
  H     -350.073      53.988       7.809
  H     -350.485      53.274       5.570
  H     -351.759      56.028       5.078
  H     -351.473      54.727       3.032
  H     -352.196      53.284       3.791
  H     -353.207      49.572      12.093
  H     -353.213      49.177      10.374
  P     -347.951      54.261       5.325
  C     -346.205      53.994       7.234
  O     -347.466      54.506       6.835
  O     -346.966      55.176       4.453
  O     -347.915      52.833       4.891
  H     -346.797      54.763       3.586
  H     -346.029      54.239       8.261
  H     -345.437      54.426       6.628
  H     -346.198      52.931       7.115

 6  7  8  9  10  11  12  13  14  15  25  28  32  33  34  35 0
 6-311+G(2d,p)
 ****
 36  37  40 0
 6-311+G(2d,p)
 ****
 1  2  3  4  5  16  17  18  19  20  21  22  23  24 0
 3-21G
 ****
 26  27  29  30  31  38  39 41  42  43  44  45  46  47  48 0
 3-21G
 ****


