%nproc=1
%NoSave
%Mem=1900MB
#P OB98/GEN NMR

erre ene a

0 1
  C      -55.231     276.536     268.651
  O      -56.374     275.729     268.821
  P      -57.149     275.567     270.204
  C      -55.379     273.959     271.255
  O      -56.726     274.169     270.865
  C      -55.293     272.994     272.449
  O      -53.897     272.806     272.791
  C      -55.987     273.572     273.691
  O      -56.753     272.625     274.424
  C      -54.846     274.264     274.426
  O      -55.106     274.490     275.804
  C      -53.671     273.339     274.114
  N      -50.248     275.831     276.923
  C      -51.374     275.145     277.334
  N      -51.725     275.293     278.629
  N      -52.104     274.407     276.531
  C      -51.694     274.444     275.242
  C      -50.597     275.085     274.721
  C      -49.780     275.867     275.620
  O      -48.838     276.585     275.281
  N      -50.530     274.959     273.356
  C      -51.609     274.266     273.048
  N      -52.363     273.959     274.156
  O      -58.595     275.940     270.210
  O      -56.369     276.631     271.141
  H      -55.103     273.624     276.248
  H      -57.027     277.004     271.759
  H      -49.773     276.447     277.572
  H      -51.903     273.987     272.042
  H      -53.627     272.497     274.811
  H      -54.702     275.246     273.965
  H      -51.271     275.968     279.229
  H      -56.729     274.327     273.402
  H      -52.666     275.014     278.888
  H      -55.702     272.022     272.155
  H      -54.982     274.940     271.536
  H      -54.786     273.586     270.412
  P      -58.279     272.711     274.883
  C      -57.692     274.120     276.945
  O      -58.327     272.950     276.466
  O      -58.846     271.223     274.731
  O      -59.115     273.664     274.092
  H      -59.754     271.252     274.384
  H      -57.553     274.024     278.025
  H      -58.327     274.987     276.745
  H      -56.717     274.257     276.472
  H      -54.900     276.476     267.635
  H      -54.453     276.194     269.301
  H      -55.473     277.551     268.888

 3  4  5  6  7  8  9  10  11  12  23  26  30  31 0
 6-311+G(2d,p)
 ****
 33  35  36  37  38 0
 6-311+G(2d,p)
 ****
 1  2  13  14  15  16  17  18  19  20  21  22  24  25 0
 3-21G
 ****
 27  28  29  32  34  39  40  41  42  43  44  45  46  47  48  49 0
 3-21G
 ****


