%nproc=1
%NoSave
%Mem=1900MB
#P OB98/GEN NMR

erre ene a

0 1
  C       -3.653     -54.062       0.368
  O       -4.848     -53.352       0.619
  H       -3.612     -54.315      -0.695
  H       -3.641     -54.988       0.948
  H       -2.776     -53.458       0.617
  P       -5.036     -52.628       2.037
  C       -6.630     -54.438       2.949
  O       -5.381     -53.781       3.098
  C       -7.158     -54.913       4.306
  O       -6.209     -55.874       4.862
  C       -7.326     -53.784       5.345
  O       -8.430     -54.141       6.186
  C       -6.012     -53.882       6.096
  O       -6.045     -53.167       7.303
  C       -5.872     -55.404       6.182
  N       -4.542     -55.846       6.583
  C       -4.275     -55.917       7.946
  O       -5.097     -55.653       8.820
  N       -3.004     -56.300       8.283
  C       -2.000     -56.604       7.412
  O       -0.884     -56.962       7.769
  C       -2.334     -56.481       5.983
  C       -3.571     -56.115       5.640
  O       -5.962     -51.459       2.051
  O       -3.546     -52.203       2.443
  H       -3.398     -51.267       2.212
  H       -6.851     -53.394       7.815
  H       -2.792     -56.357       9.268
  H       -1.553     -56.694       5.267
  H       -3.853     -56.012       4.597
  H       -6.612     -55.823       6.872
  H       -5.202     -53.453       5.500
  H       -7.513     -52.809       4.888
  H       -8.100     -55.452       4.151
  H       -6.489     -55.297       2.285
  H       -7.348     -53.748       2.491
  P       -9.944     -53.694       5.890
  C      -10.202     -52.073       7.880
  O      -10.184     -52.214       6.466
  O      -10.962     -54.683       6.359
  O      -10.032     -53.507       4.303
  H      -10.913     -53.790       3.995
  H      -10.369     -51.047       8.134
  H       -9.263     -52.392       8.282
  H      -10.988     -52.674       8.288

 6  7  8  9  10  11  12  13  14  15  16  27  31  32  33  34  35 0
 6-311+G(2d,p)
 ****
 36  37 0
 6-311+G(2d,p)
 ****
 1  2  3  4  5  17  18  19  20  21  22  23  24  25 0
 3-21G
 ****
 26  28  29  30  38  39  40  41  42  43  44  45 0
 3-21G
 ****


