%nproc=1
%NoSave
%Mem=1900MB
#P OB98/GEN NMR

erre ene a

0 1
  C      -16.291     207.387     247.412
  O      -16.950     206.213     246.979
  P      -16.133     204.842     246.795
  C      -14.007     204.200     245.476
  O      -15.067     205.138     245.624
  C      -12.986     204.689     244.450
  O      -12.516     206.005     244.795
  C      -11.744     203.817     244.350
  O      -12.020     202.639     243.608
  C      -10.770     204.771     243.675
  O      -10.958     204.798     242.251
  C      -11.162     206.129     244.304
  N      -10.237     206.542     245.354
  C       -9.144     207.308     244.940
  O       -8.977     207.562     243.743
  N       -8.227     207.711     245.882
  C       -8.384     207.371     247.128
  N       -7.445     207.795     248.008
  C       -9.515     206.539     247.594
  C      -10.393     206.163     246.669
  O      -16.965     203.622     246.609
  O      -15.211     204.791     248.103
  H      -10.589     205.654     241.948
  H      -15.737     204.557     248.909
  H       -9.601     206.270     248.639
  H      -11.247     205.549     246.927
  H      -11.181     206.915     243.540
  H       -9.725     204.491     243.855
  H      -11.382     203.563     245.353
  H      -13.488     204.748     243.472
  H       -6.675     208.336     247.635
  H      -14.431     203.247     245.141
  H       -7.453     207.554     248.987
  H      -13.533     204.038     246.453
  P      -11.005     201.403     243.664
  C       -8.461     201.200     243.924
  O       -9.531     201.967     243.403
  O      -11.392     200.216     242.845
  O      -10.974     201.020     245.226
  H      -11.027     200.052     245.315
  H       -7.542     201.488     243.408
  H       -8.634     200.133     243.772
  H       -8.350     201.405     244.991
  H      -16.996     208.190     247.474
  H      -15.521     207.642     246.714
  H      -15.858     207.218     248.376

 3  4  5  6  7  8  9  10  11  12  13  23  27  28  29  30  32 0
 6-311+G(2d,p)
 ****
 34  35 0
 6-311+G(2d,p)
 ****
 1  2  14  15  16  17  18  19  20  21  22  24  25  26 0
 3-21G
 ****
 31  33  36  37  38  39  40  41  42  43  44  45  46 0
 3-21G
 ****


