%nproc=1
%NoSave
%Mem=1900MB
#P OB98/GEN NMR

erre ene a

0 1
  C       76.974      23.802      -7.427
  O       77.872      24.464      -8.294
  H       77.195      22.730      -7.442
  H       75.946      23.953      -7.765
  H       77.090      24.173      -6.405
  P       77.714      26.055      -8.422
  C       76.475      26.081     -10.700
  O       76.389      26.304      -9.300
  C       75.202      26.569     -11.396
  O       74.096      25.703     -11.016
  C       74.809      28.009     -11.033
  O       74.281      28.650     -12.198
  C       73.689      27.815     -10.025
  O       72.836      28.952      -9.945
  C       73.022      26.561     -10.582
  N       68.246      25.643      -9.292
  C       68.768      26.305     -10.387
  N       67.883      26.805     -11.276
  N       70.048      26.466     -10.590
  C       70.820      25.893      -9.634
  C       70.427      25.224      -8.501
  C       69.005      25.071      -8.275
  O       68.482      24.516      -7.314
  N       71.514      24.825      -7.763
  C       72.558      25.252      -8.449
  N       72.187      25.903      -9.594
  O       78.897      26.469      -9.418
  O       77.768      26.813      -7.138
  H       72.663      29.263     -10.858
  H       79.214      27.372      -9.226
  H       67.251      25.557      -9.178
  H       73.594      25.119      -8.164
  H       72.383      26.777     -11.448
  H       74.107      27.627      -9.029
  H       66.884      26.692     -11.203
  H       75.636      28.599     -10.631
  H       68.245      27.282     -12.095
  H       75.331      26.457     -12.479
  H       76.601      25.009     -10.885
  H       77.342      26.618     -11.097
  P       75.089      29.903     -12.788
  C       73.754      31.744     -11.536
  O       75.010      31.111     -11.732
  O       74.155      30.399     -13.991
  O       76.461      29.564     -13.273
  H       74.571      30.177     -14.843
  H       73.857      32.523     -10.810
  H       73.042      31.024     -11.189
  H       73.417      32.161     -12.462

 6  7  8  9  10  11  12  13  14  15  26  29  33  34 0
 6-311+G(2d,p)
 ****
 36  38  39  40  41 0
 6-311+G(2d,p)
 ****
 1  2  3  4  5  16  17  18  19  20  21  22  23  24  25 0
 3-21G
 ****
 27  28  30  31  32  35  37  42  43  44  45  46  47 0
 3-21G
 ****
 48  49 0
 3-21G
 ****


