%nproc=1
%NoSave
%Mem=1900MB
#P OB98/GEN NMR

erre ene a

0 1
  C     -493.777     433.711     -18.575
  O     -494.415     434.980     -18.619
  P     -495.759     435.167     -17.753
  C     -495.145     437.401     -16.503
  O     -495.323     435.992     -16.450
  C     -493.821     437.791     -15.831
  O     -492.715     437.199     -16.545
  C     -493.537     439.284     -15.807
  O     -494.297     439.954     -14.813
  C     -492.035     439.297     -15.581
  O     -491.738     439.097     -14.187
  C     -491.579     438.076     -16.405
  N     -491.020     438.434     -17.708
  C     -489.629     438.438     -17.805
  O     -488.891     438.167     -16.862
  N     -489.118     438.798     -19.027
  C     -489.841     439.199     -20.110
  O     -489.328     439.552     -21.172
  C     -491.303     439.200     -19.945
  C     -491.815     438.823     -18.768
  O     -495.983     433.671     -17.233
  O     -496.887     435.744     -18.541
  H     -495.144     433.178     -17.171
  H     -490.765     439.000     -14.123
  H     -488.114     438.787     -19.125
  H     -491.909     439.521     -20.775
  H     -492.886     438.830     -18.618
  H     -490.821     437.505     -15.852
  H     -491.566     440.242     -15.880
  H     -493.767     439.722     -16.792
  H     -493.824     437.384     -14.807
  H     -495.980     437.883     -15.983
  H     -495.152     437.726     -17.549
  P     -495.648     440.684     -15.301
  C     -497.239     440.540     -13.232
  O     -496.840     439.999     -14.473
  O     -495.806     440.085     -16.780
  O     -495.580     442.170     -15.243
  H     -495.608     439.131     -16.826
  H     -498.251     440.192     -13.007
  H     -497.240     441.632     -13.242
  H     -496.562     440.186     -12.444
  H     -492.903     433.730     -19.192
  H     -494.451     432.961     -18.933
  H     -493.497     433.487     -17.567

 3  4  5  6  7  8  9  10  11  12  13  24  28  29  30  31  32 0
 6-311+G(2d,p)
 ****
 33  34 0
 6-311+G(2d,p)
 ****
 1  2  14  15  16  17  18  19  20  21  22  23  25  26  27 0
 3-21G
 ****
 35  36  37  38  39  40  41  42  43  44  45 0
 3-21G
 ****


