%nproc=1
%NoSave
%Mem=1900MB
#P OB98/GEN NMR

erre ene a

0 1
  C      592.653       2.387    -373.825
  O      594.056       2.159    -373.821
  H      592.464       3.383    -374.234
  H      592.267       2.340    -372.803
  H      592.157       1.640    -374.451
  P      594.544       0.737    -373.269
  C      594.382      -0.717    -375.434
  O      593.814      -0.367    -374.172
  C      594.468      -2.241    -375.580
  O      593.145      -2.806    -375.328
  C      594.889      -2.702    -376.977
  O      595.572      -3.970    -376.839
  C      593.549      -2.922    -377.658
  O      593.696      -3.658    -378.851
  C      592.788      -3.570    -376.507
  N      588.732      -6.414    -377.754
  C      590.032      -6.730    -377.603
  N      591.055      -5.919    -377.252
  C      590.616      -4.668    -377.034
  C      589.317      -4.195    -377.134
  C      588.342      -5.142    -377.521
  N      587.006      -4.817    -377.687
  N      589.250      -2.849    -376.841
  C      590.502      -2.508    -376.562
  N      591.354      -3.582    -376.671
  O      593.807       0.614    -371.853
  O      596.022       0.570    -373.145
  H      592.851      -3.710    -379.331
  H      594.400       0.918    -371.142
  H      590.294      -7.770    -377.784
  H      590.830      -1.516    -376.280
  H      593.109      -4.602    -376.340
  H      593.092      -1.965    -377.934
  H      595.550      -1.994    -377.502
  H      595.135      -2.639    -374.806
  H      595.391      -0.277    -375.489
  H      593.765      -0.294    -376.238
  H      586.379      -5.554    -377.979
  H      586.710      -3.864    -377.531
  P      597.033      -4.005    -376.169
  C      596.582      -5.181    -373.872
  O      596.870      -3.979    -374.569
  O      597.575      -2.527    -376.475
  O      597.970      -5.032    -376.713
  H      598.548      -2.537    -376.527
  H      596.509      -4.977    -372.824
  H      597.366      -5.889    -374.043
  H      595.655      -5.583    -374.223

 6  7  8  9  10  11  12  13  14  15  25  28  32  33  34  35 0
 6-311+G(2d,p)
 ****
 36  37  40 0
 6-311+G(2d,p)
 ****
 1  2  3  4  5  16  17  18  19  20  21  22  23  24 0
 3-21G
 ****
 26  27  29  30  31  38  39 41  42  43  44  45  46  47  48 0
 3-21G
 ****


