%nproc=1
%NoSave
%Mem=1900MB
#P OB98/GEN NMR

erre ene a

0 1
  C       23.714     228.882     -23.987
  O       22.373     228.981     -24.432
  P       21.925     230.127     -25.467
  C       20.193     230.270     -27.368
  O       20.811     229.435     -26.391
  C       19.321     229.434     -28.308
  O       20.192     228.653     -29.163
  C       18.399     228.421     -27.625
  O       17.159     228.949     -27.175
  C       18.145     227.454     -28.784
  O       17.155     228.014     -29.666
  C       19.512     227.404     -29.475
  N       20.637     222.473     -30.258
  C       19.801     223.324     -30.902
  N       19.539     224.614     -30.614
  C       20.286     225.031     -29.577
  C       21.188     224.286     -28.826
  C       21.354     222.943     -29.210
  N       22.230     222.081     -28.568
  N       21.747     225.058     -27.827
  C       21.209     226.248     -27.976
  N       20.324     226.290     -29.024
  O       23.054     230.779     -26.193
  O       21.074     231.151     -24.583
  H       16.475     228.436     -29.102
  H       20.988     232.004     -25.058
  H       19.261     222.907     -31.744
  H       21.415     227.105     -27.360
  H       19.426     227.345     -30.566
  H       17.764     226.479     -28.453
  H       18.921     227.882     -26.819
  H       18.741     230.120     -28.943
  H       20.986     230.756     -27.955
  H       22.378     221.179     -28.987
  H       22.877     222.474     -27.897
  H       19.611     231.050     -26.866
  P       16.575     228.373     -25.786
  C       15.098     229.545     -23.963
  O       16.103     229.654     -24.953
  O       17.489     227.438     -25.071
  O       15.188     227.707     -26.237
  H       14.507     228.334     -26.552
  H       15.047     230.482     -23.405
  H       15.323     228.738     -23.264
  H       14.128     229.366     -24.440
  H       23.805     228.060     -23.308
  H       23.993     229.788     -23.490
  H       24.358     228.723     -24.827

 3  4  5  6  7  8  9  10  11  12  22  25  29  30  31  32 0
 6-311+G(2d,p)
 ****
 33  36  37 0
 6-311+G(2d,p)
 ****
 1  2  13  14  15  16  17  18  19  20  21  23  24  26 0
 3-21G
 ****
 27  28  34  35  38  39  40  41  42  43  44  45  46  47  48 0
 3-21G
 ****


