%nproc=1
%NoSave
%Mem=1900MB
#P OB98/GEN NMR

erre ene a

0 1
  C     -533.483     -60.818    -337.087
  O     -533.557     -61.842    -338.056
  H     -533.040     -61.232    -336.179
  H     -534.480     -60.441    -336.850
  H     -532.850     -59.998    -337.442
  P     -534.178     -61.491    -339.496
  C     -533.576     -63.918    -340.183
  O     -534.585     -62.924    -340.107
  C     -534.141     -65.279    -339.790
  O     -534.316     -65.378    -338.363
  C     -535.520     -65.588    -340.367
  O     -535.503     -65.898    -341.752
  C     -535.896     -66.788    -339.512
  O     -535.176     -67.952    -339.962
  C     -535.397     -66.327    -338.119
  N     -536.454     -65.704    -337.325
  C     -537.577     -66.492    -337.047
  O     -537.653     -67.648    -337.468
  N     -538.611     -65.947    -336.314
  C     -538.534     -64.717    -335.927
  N     -539.590     -64.221    -335.217
  C     -537.384     -63.839    -336.215
  C     -536.397     -64.393    -336.908
  O     -533.335     -60.632    -340.384
  O     -535.613     -60.861    -339.168
  H     -535.548     -68.713    -339.485
  H     -536.041     -60.616    -340.029
  H     -537.388     -62.804    -335.888
  H     -535.511     -63.808    -337.164
  H     -534.973     -67.166    -337.559
  H     -536.957     -67.026    -339.550
  H     -536.225     -64.778    -340.154
  H     -533.401     -66.040    -340.079
  H     -540.368     -64.842    -335.036
  H     -532.757     -63.624    -339.518
  H     -539.659     -63.248    -334.943
  H     -533.191     -63.985    -341.204
  P     -536.826     -66.594    -342.351
  C     -535.682     -67.380    -344.574
  O     -536.314     -67.741    -343.352
  O     -537.413     -65.464    -343.315
  O     -537.815     -67.066    -341.334
  H     -538.137     -64.982    -342.874
  H     -535.409     -68.265    -345.110
  H     -534.804     -66.805    -344.365
  H     -536.357     -66.799    -345.167

 6  7  8  9  10  11  12  13  14  15  16  26  30  31  32  33  35 0
 6-311+G(2d,p)
 ****
 37  38 0
 6-311+G(2d,p)
 ****
 1  2  3  4  5  17  18  19  20  21  22  23  24  25 0
 3-21G
 ****
 27  28  29  34  36  39  40  41  42  43  44  45  46 0
 3-21G
 ****


