%nproc=1
%NoSave
%Mem=1900MB
#P OB98/GEN NMR

erre ene a

0 1
  C      409.953    -686.419      17.981
  O      410.671    -686.009      16.845
  H      408.966    -685.943      17.968
  H      410.471    -686.116      18.891
  H      409.812    -687.509      17.977
  P      412.073    -686.747      16.571
  C      414.517    -686.447      17.401
  O      413.155    -686.053      17.530
  C      415.421    -685.218      17.299
  O      415.052    -684.247      18.306
  C      416.904    -685.518      17.503
  O      417.516    -685.994      16.316
  C      417.417    -684.130      17.873
  O      417.523    -683.321      16.681
  C      416.280    -683.599      18.758
  N      416.620    -681.567      23.400
  C      416.444    -680.948      22.166
  N      416.357    -679.597      22.171
  N      416.367    -681.605      21.031
  C      416.478    -682.944      21.178
  C      416.653    -683.663      22.347
  C      416.727    -682.932      23.593
  O      416.859    -683.425      24.707
  N      416.706    -685.015      22.099
  C      416.602    -685.104      20.790
  N      416.465    -683.880      20.181
  O      412.485    -686.236      15.106
  O      412.027    -688.238      16.633
  H      416.622    -683.226      16.329
  H      412.928    -686.966      14.636
  H      416.684    -681.007      24.232
  H      416.604    -686.035      20.231
  H      416.137    -682.520      18.666
  H      418.394    -684.158      18.338
  H      416.463    -679.043      22.999
  H      417.064    -686.201      18.344
  H      416.201    -679.132      21.275
  H      415.248    -684.756      16.324
  H      414.627    -687.057      16.499
  H      414.785    -687.046      18.274
  P      418.901    -686.793      16.464
  C      421.309    -686.095      17.166
  O      419.926    -685.753      17.133
  O      419.415    -686.902      14.957
  O      418.804    -688.120      17.128
  H      420.042    -687.654      14.869
  H      421.860    -685.309      17.639
  H      421.667    -686.230      16.167
  H      421.439    -687.003      17.717

 6  7  8  9  10  11  12  13  14  15  26  29  33  34 0
 6-311+G(2d,p)
 ****
 36  38  39  40  41 0
 6-311+G(2d,p)
 ****
 1  2  3  4  5  16  17  18  19  20  21  22  23  24  25 0
 3-21G
 ****
 27  28  30  31  32  35  37  42  43  44  45  46  47 0
 3-21G
 ****
 48  49 0
 3-21G
 ****


