%nproc=1
%NoSave
%Mem=1900MB
#P OB98/GEN NMR

erre ene a

0 1
  C       53.879     -50.801      -3.285
  O       53.112     -50.852      -4.478
  P       53.725     -51.654      -5.725
  C       54.736     -49.391      -6.465
  O       54.959     -50.780      -6.266
  C       56.020     -48.690      -6.893
  O       57.093     -49.084      -5.995
  C       56.472     -49.020      -8.325
  O       56.902     -47.816      -8.974
  C       57.697     -49.893      -8.117
  O       58.586     -49.838      -9.227
  C       58.252     -49.292      -6.827
  N       62.558     -49.187      -4.192
  C       61.693     -48.159      -4.510
  N       62.061     -46.919      -4.117
  N       60.571     -48.327      -5.158
  C       60.316     -49.623      -5.462
  C       61.089     -50.729      -5.193
  C       62.357     -50.519      -4.528
  O       63.209     -51.375      -4.298
  N       60.489     -51.878      -5.641
  C       59.359     -51.470      -6.184
  N       59.231     -50.104      -6.143
  O       52.604     -51.469      -6.853
  O       54.011     -53.095      -5.479
  H       59.428     -50.239      -8.940
  H       52.312     -52.343      -7.174
  H       63.417     -48.998      -3.707
  H       58.623     -52.117      -6.644
  H       58.709     -48.314      -7.026
  H       57.379     -50.932      -7.976
  H       62.893     -46.724      -3.584
  H       55.709     -49.516      -8.934
  H       61.428     -46.155      -4.321
  H       55.884     -47.608      -6.771
  H       54.380     -48.947      -5.530
  H       53.964     -49.263      -7.231
  P       56.363     -47.593     -10.471
  C       58.463     -48.752     -11.486
  O       57.055     -48.734     -11.356
  O       57.101     -46.251     -10.933
  O       54.878     -47.495     -10.572
  H       56.591     -45.807     -11.637
  H       58.950     -48.044     -10.809
  H       58.728     -48.496     -12.515
  H       58.827     -49.759     -11.265
  H       53.350     -50.238      -2.545
  H       54.820     -50.332      -3.485
  H       54.045     -51.795      -2.925

 3  4  5  6  7  8  9  10  11  12  23  26  30  31  33  0
 6-311+G(2d,p)
 ****
 35  36  37  38 0
 6-311+G(2d,p)
 ****
 1  2  13  14  15  16  17  18  19  20  21  22  24  25  27  28  29 0
 3-21G
 ****
 32  34  39  40  41  42  43  44  45  46  47  48  49 0
 3-21G
 ****


