%nproc=1
%NoSave
%Mem=1900MB
#P OB98/GEN NMR

erre ene a

0 1
  C      -10.236      57.104    -159.859
  O       -9.077      57.501    -159.155
  H      -10.198      57.532    -160.863
  H      -11.135      57.471    -159.356
  H      -10.275      56.015    -159.945
  P       -8.917      57.060    -157.624
  C       -6.376      57.509    -157.552
  O       -7.656      57.864    -157.040
  C       -5.274      58.230    -156.767
  O       -5.415      59.650    -157.009
  C       -5.375      57.986    -155.254
  O       -4.158      57.515    -154.676
  C       -5.945      59.298    -154.726
  O       -5.619      59.585    -153.381
  C       -5.435      60.330    -155.740
  N       -6.252      61.539    -155.816
  C       -5.892      62.603    -154.993
  O       -4.929      62.615    -154.229
  N       -6.693      63.714    -155.080
  C       -7.788      63.856    -155.876
  O       -8.464      64.878    -155.917
  C       -8.131      62.690    -156.704
  C       -7.359      61.601    -156.638
  O       -8.890      55.590    -157.374
  O      -10.158      57.757    -156.887
  H       -5.898      58.821    -152.838
  H      -10.853      57.093    -156.720
  H       -6.435      64.496    -154.498
  H       -9.000      62.761    -157.344
  H       -7.583      60.722    -157.236
  H       -4.416      60.631    -155.502
  H       -7.040      59.246    -154.788
  H       -6.085      57.180    -155.035
  H       -4.298      57.921    -157.162
  H       -6.341      57.800    -158.607
  H       -6.237      56.425    -157.476
  P       -4.038      56.234    -153.733
  C       -2.003      55.100    -154.935
  O       -2.521      55.728    -153.772
  O       -5.100      55.201    -153.906
  O       -4.196      56.852    -152.250
  H       -4.640      56.167    -151.709
  H       -0.980      54.834    -154.771
  H       -2.068      55.774    -155.763
  H       -2.571      54.218    -155.147

 6  7  8  9  10  11  12  13  14  15  16  26  31  32  33  34  35 0
 6-311+G(2d,p)
 ****
 36  37 0
 6-311+G(2d,p)
 ****
 1  2  3  4  5  17  18  19  20  21  22  23  24  25 0
 3-21G
 ****
 27  28  29  30  38  39  40  41  42  43  44  45 0
 3-21G
 ****


