%nproc=1
%NoSave
%Mem=1900MB
#P OB98/GEN NMR

erre ene a

0 1
  C     -292.778     291.207      77.169
  O     -292.233     291.769      75.968
  P     -293.080     292.944      75.274
  C     -291.021     293.934      74.036
  O     -292.326     293.377      73.932
  C     -290.089     293.303      73.008
  O     -289.488     292.083      73.504
  C     -290.797     292.895      71.719
  O     -291.084     294.028      70.915
  C     -289.772     291.935      71.116
  O     -288.714     292.661      70.480
  C     -289.235     291.220      72.369
  N     -290.220     286.628      70.332
  C     -289.587     287.722      69.840
  N     -289.368     288.906      70.445
  C     -289.866     288.906      71.694
  C     -290.531     287.869      72.332
  C     -290.706     286.683      71.598
  N     -291.366     285.582      72.092
  N     -290.897     288.236      73.610
  C     -290.481     289.482      73.734
  N     -289.845     289.926      72.604
  O     -292.859     294.189      76.259
  O     -294.529     292.619      75.111
  H     -289.077     293.056      69.661
  H     -293.679     294.376      76.753
  H     -289.211     287.625      68.827
  H     -290.622     290.103      74.612
  H     -288.151     291.058      72.317
  H     -290.207     291.262      70.375
  H     -291.727     292.355      71.949
  H     -289.291     294.017      72.780
  H     -290.619     293.775      75.044
  H     -291.513     284.801      71.467
  H     -291.807     285.638      72.997
  H     -291.088     295.019      73.896
  P     -292.614     294.500      70.808
  C     -291.857     296.885      71.376
  O     -292.505     296.056      70.427
  O     -293.053     294.540      72.341
  O     -293.468     293.671      69.908
  H     -292.377     294.979      72.901
  H     -291.822     297.908      70.981
  H     -290.839     296.541      71.553
  H     -292.425     296.892      72.311
  H     -292.126     290.440      77.532
  H     -293.741     290.788      76.962
  H     -292.874     291.973      77.910

 3  4  5  6  7  8  9  10  11  12  22  25  29  30  31  32 0
 6-311+G(2d,p)
 ****
 33  36  37 0
 6-311+G(2d,p)
 ****
 1  2  13  14  15  16  17  18  19  20  21  23  24  26 0
 3-21G
 ****
 27  28  34  35  38  39  40  41  42  43  44  45  46  47  48 0
 3-21G
 ****


