%nproc=1
%NoSave
%Mem=1900MB
#P OB98/GEN NMR

erre ene a

0 1
  C     -891.580    -611.708    -892.745
  O     -891.430    -612.631    -893.785
  H     -892.370    -612.044    -892.075
  H     -890.650    -611.676    -892.175
  H     -891.800    -610.731    -893.135
  P     -892.620    -612.751    -894.855
  C     -891.790    -611.509    -896.965
  O     -892.550    -611.424    -895.735
  C     -891.840    -610.177    -897.715
  O     -893.250    -609.924    -898.115
  C     -891.330    -608.962    -896.895
  O     -890.650    -608.069    -897.755
  C     -892.630    -608.300    -896.425
  O     -892.450    -606.956    -896.145
  C     -893.600    -608.625    -897.595
  N     -897.950    -605.972    -898.065
  C     -896.750    -605.917    -898.715
  N     -895.650    -606.606    -898.515
  C     -895.850    -607.547    -897.585
  C     -897.040    -607.817    -896.885
  C     -898.100    -606.927    -897.145
  N     -899.340    -607.022    -896.475
  N     -896.840    -608.921    -895.975
  C     -895.570    -609.283    -896.235
  N     -894.960    -608.505    -897.215
  O     -893.930    -612.465    -893.925
  O     -892.780    -614.044    -895.575
  H     -891.950    -606.508    -896.875
  H     -894.150    -613.296    -893.445
  H     -896.720    -605.059    -899.425
  H     -895.120    -610.110    -895.745
  H     -893.440    -607.852    -898.425
  H     -893.020    -608.818    -895.515
  H     -890.760    -609.292    -896.015
  H     -891.270    -610.286    -898.685
  H     -892.220    -612.300    -897.625
  H     -900.000    -606.345    -896.675
  H     -899.420    -607.674    -895.725
  H     -890.790    -611.781    -896.735
  P     -889.070    -608.029    -897.535
  C     -888.410    -609.489    -899.585
  O     -888.420    -609.383    -898.185
  O     -888.860    -608.225    -895.955
  O     -888.450    -606.745    -898.005
  H     -888.260    -607.549    -895.625
  H     -887.960    -610.417    -899.869
  H     -887.849    -608.678    -900.000
  H     -889.414    -609.453    -899.953

 6  7  8  9  10  11  12  13  14  15  25  28  32  33  34  35 0
 6-311+G(2d,p)
 ****
 36  39  40 0
 6-311+G(2d,p)
 ****
 1  2  3  4  5  16  17  18  19  20  21  22  23  24 0
 3-21G
 ****
 26  27  29  30  31  37  38  41  42  43  44  45  46  47 0
 3-21G
 ****
 48 0
 3-21G
 ****


