%nproc=1
%NoSave
%Mem=1900MB
#P OB98/GEN NMR

erre ene a

0 1
  C     1131.842    1311.377    -290.263
  O     1131.118    1312.060    -291.281
  P     1129.540    1311.875    -291.512
  C     1129.513    1311.459    -294.048
  O     1129.168    1312.341    -292.997
  C     1130.214    1312.191    -295.234
  O     1131.600    1312.341    -294.933
  C     1130.124    1311.458    -296.570
  O     1128.855    1311.601    -297.134
  C     1131.268    1312.164    -297.319
  O     1130.831    1313.420    -297.878
  C     1132.310    1312.361    -296.199
  N     1133.377    1311.404    -296.249
  C     1134.665    1311.893    -296.629
  O     1134.784    1313.084    -296.957
  N     1135.713    1311.022    -296.660
  C     1135.508    1309.763    -296.397
  N     1136.622    1308.944    -296.408
  C     1134.203    1309.202    -296.068
  C     1133.199    1310.066    -296.011
  O     1128.690    1312.479    -290.451
  O     1129.325    1310.287    -291.558
  H     1131.578    1313.747    -298.402
  H     1128.435    1310.082    -291.213
  H     1134.078    1308.144    -295.892
  H     1132.188    1309.749    -295.793
  H     1132.725    1313.392    -296.282
  H     1131.641    1311.541    -298.160
  H     1130.374    1310.410    -296.442
  H     1129.760    1313.168    -295.298
  H     1137.511    1309.358    -296.633
  H     1128.592    1310.982    -294.429
  H     1136.569    1307.950    -296.249
  H     1130.162    1310.654    -293.666
  P     1128.054    1310.312    -297.644
  C     1128.166    1311.007    -300.095
  O     1127.334    1310.684    -299.005
  O     1127.204    1309.643    -296.606
  O     1129.219    1309.288    -298.123
  H     1128.928    1308.391    -297.972
  H     1127.612    1310.847    -301.029
  H     1129.058    1310.397    -300.117
  H     1128.427    1312.076    -300.021
  H     1132.873    1311.661    -290.306
  H     1131.757    1310.321    -290.412
  H     1131.441    1311.635    -289.305

 3  4  5  6  7  8  9  10  11  12  13  23  27  28  29  30  32 0
 6-311+G(2d,p)
 ****
 34  35 0
 6-311+G(2d,p)
 ****
 1  2  14  15  16  17  18  19  20  21  22  24  25  26 0
 3-21G
 ****
 31  33  36  37  38  39  40  41  42  43  44  45  46 0
 3-21G
 ****


