%nproc=1
%NoSave
%Mem=1900MB
#P OB98/GEN NMR

erre ene a

0 1
  C      -92.546     152.051       5.273
  O      -92.224     150.863       4.588
  P      -90.779     150.543       3.997
  C      -91.040     152.112       1.921
  O      -90.310     151.785       3.098
  C      -90.092     152.464       0.766
  O      -89.269     153.589       1.170
  C      -89.137     151.304       0.444
  O      -88.935     151.085      -0.946
  C      -87.909     151.632       1.285
  O      -86.728     150.981       0.844
  C      -87.894     153.156       1.230
  N      -83.505     154.734       3.244
  C      -83.772     154.327       1.952
  N      -82.697     154.149       1.152
  N      -84.977     154.086       1.505
  C      -85.937     154.198       2.450
  C      -85.793     154.595       3.760
  C      -84.462     154.890       4.232
  O      -84.166     155.143       5.399
  N      -86.979     154.527       4.445
  C      -87.834     154.057       3.562
  N      -87.242     153.811       2.344
  O      -90.563     149.166       3.459
  O      -89.846     150.708       5.306
  H      -86.581     151.235      -0.086
  H      -89.120     150.058       5.224
  H      -82.543     154.828       3.552
  H      -88.881     153.849       3.753
  H      -87.391     153.517       0.331
  H      -88.104     151.279       2.305
  H      -81.754     154.184       1.510
  H      -89.559     150.353       0.790
  H      -82.842     153.620       0.296
  H      -90.682     152.777      -0.103
  H      -91.662     152.979       2.176
  H      -91.704     151.292       1.641
  P      -89.258     149.784      -1.812
  C      -86.868     148.860      -1.949
  O      -88.180     148.654      -1.459
  O      -88.877     150.181      -3.313
  O      -90.678     149.326      -1.744
  H      -89.535     149.803      -3.928
  H      -86.317     147.919      -1.885
  H      -86.362     149.610      -1.335
  H      -86.890     149.191      -2.992
  H      -93.574     152.025       5.568
  H      -92.380     152.890       4.630
  H      -91.928     152.140       6.142

 3  4  5  6  7  8  9  10  11  12  23  26  30  31 0
 6-311+G(2d,p)
 ****
 33  35  36  37  38 0
 6-311+G(2d,p)
 ****
 1  2  13  14  15  16  17  18  19  20  21  22  24  25 0
 3-21G
 ****
 27  28  29  32  34  39  40  41  42  43  44  45  46  47  48  49 0
 3-21G
 ****


