%nproc=1
%NoSave
%Mem=1900MB
#P OB98/GEN NMR

erre ene a

0 1
  C     -359.957     396.429     283.952
  O     -361.032     397.290     284.279
  H     -360.138     395.453     284.411
  H     -359.018     396.833     284.339
  H     -359.891     396.302     282.865
  P     -360.942     398.790     283.713
  C     -363.524     398.803     283.470
  O     -362.376     399.459     283.992
  C     -364.799     399.463     284.000
  O     -365.178     398.891     285.272
  C     -364.687     400.968     284.208
  O     -364.890     401.671     282.993
  C     -365.795     401.209     285.221
  O     -367.087     401.282     284.583
  C     -365.701     399.961     286.110
  N     -365.167     402.479     290.453
  C     -366.186     402.507     289.529
  N     -367.193     403.381     289.765
  N     -366.219     401.760     288.452
  C     -365.130     400.964     288.329
  C     -364.064     400.834     289.186
  C     -364.057     401.643     290.386
  O     -363.216     401.620     291.279
  N     -363.164     399.905     288.725
  C     -363.668     399.508     287.569
  N     -364.854     400.133     287.280
  O     -360.933     398.594     282.123
  O     -359.762     399.579     284.173
  H     -367.050     401.928     283.857
  H     -360.420     399.312     281.717
  H     -365.211     403.067     291.271
  H     -363.218     398.774     286.918
  H     -366.683     399.634     286.474
  H     -365.658     402.150     285.755
  H     -367.069     404.186     290.366
  H     -363.719     401.227     284.659
  H     -367.936     403.423     289.086
  H     -365.606     399.232     283.286
  H     -363.509     397.752     283.786
  H     -363.504     398.850     282.380
  P     -363.955     402.947     282.706
  C     -362.973     402.125     280.446
  O     -363.815     403.055     281.113
  O     -362.506     402.457     283.176
  O     -364.381     404.196     283.402
  H     -361.916     403.227     283.302
  H     -362.984     402.324     279.395
  H     -363.328     401.131     280.624
  H     -361.974     402.219     280.817

 6  7  8  9  10  11  12  13  14  15  26  29  33  34 0
 6-311+G(2d,p)
 ****
 36  38  39  40  41 0
 6-311+G(2d,p)
 ****
 1  2  3  4  5  16  17  18  19  20  21  22  23  24  25 0
 3-21G
 ****
 27  28  30  31  32  35  37  42  43  44  45  46  47 0
 3-21G
 ****
 48  49 0
 3-21G
 ****


