%nproc=1
%NoSave
%Mem=1900MB
#P OB98/GEN NMR

erre ene a

0 1
  C     -612.742    -322.499      49.447
  O     -613.998    -323.179      49.603
  P     -614.047    -324.327      50.734
  C     -613.428    -326.855      50.891
  O     -613.519    -325.697      50.066
  C     -612.788    -328.036      50.158
  O     -613.616    -328.395      49.025
  C     -611.378    -327.779      49.616
  O     -610.597    -328.970      49.755
  C     -611.607    -327.545      48.140
  O     -610.434    -327.795      47.364
  C     -612.759    -328.517      47.881
  N     -612.749    -328.928      42.827
  C     -611.879    -329.460      43.764
  N     -610.845    -330.186      43.278
  N     -612.008    -329.296      45.055
  C     -613.105    -328.575      45.396
  C     -614.047    -328.006      44.579
  C     -613.868    -328.160      43.145
  O     -614.577    -327.664      42.266
  N     -615.020    -327.352      45.299
  C     -614.660    -327.521      46.560
  N     -613.497    -328.251      46.670
  O     -615.617    -324.570      50.933
  O     -613.376    -323.942      52.012
  H     -610.674    -327.659      46.429
  H     -615.848    -324.445      51.866
  H     -612.597    -329.062      41.846
  H     -615.175    -327.118      47.417
  H     -612.397    -329.556      47.842
  H     -611.915    -326.504      47.967
  H     -610.726    -330.396      42.294
  H     -610.850    -326.937      50.096
  H     -610.210    -330.618      43.942
  H     -612.779    -328.896      50.842
  H     -614.428    -327.131      51.233
  H     -612.838    -326.596      51.785
  P     -609.618    -329.053      51.026
  C     -607.172    -328.286      51.459
  O     -608.201    -328.503      50.516
  O     -609.372    -330.624      51.202
  O     -610.167    -328.413      52.262
  H     -609.157    -330.830      52.131
  H     -607.401    -328.710      52.433
  H     -607.011    -327.204      51.565
  H     -606.250    -328.731      51.080
  H     -612.828    -321.764      48.674
  H     -611.984    -323.207      49.184
  H     -612.479    -322.020      50.367

 3  4  5  6  7  8  9  10  11  12  23  26  30  31  33  0
 6-311+G(2d,p)
 ****
 35  36  37  38 0
 6-311+G(2d,p)
 ****
 1  2  13  14  15  16  17  18  19  20  21  22  24  25  27  28  29 0
 3-21G
 ****
 32  34  39  40  41  42  43  44  45  46  47  48  49 0
 3-21G
 ****


