%nproc=1
%NoSave
%Mem=1900MB
#P OB98/GEN NMR

erre ene a

0 1
  C      304.414    -145.359     275.171
  O      304.809    -144.936     273.886
  H      304.025    -146.379     275.094
  H      303.626    -144.717     275.567
  H      305.272    -145.365     275.850
  P      305.246    -143.403     273.671
  C      302.911    -142.471     273.150
  O      303.954    -142.541     274.114
  C      302.059    -141.215     273.334
  O      301.124    -141.091     272.229
  C      301.247    -141.200     274.637
  O      301.384    -139.926     275.272
  C      299.809    -141.395     274.162
  O      298.860    -140.882     275.093
  C      299.856    -140.705     272.792
  N      298.742    -141.088     271.925
  C      297.531    -140.419     272.138
  O      297.432    -139.588     273.044
  N      296.453    -140.738     271.350
  C      296.559    -141.679     270.463
  N      295.454    -141.955     269.724
  C      297.802    -142.439     270.240
  C      298.847    -142.092     270.993
  O      305.773    -143.089     272.309
  O      306.288    -143.114     274.846
  H      299.064    -139.938     275.259
  H      306.838    -142.323     274.612
  H      297.842    -143.222     269.492
  H      299.807    -142.592     270.886
  H      299.842    -139.615     272.904
  H      299.610    -142.468     274.030
  H      301.539    -141.975     275.334
  H      302.723    -140.337     273.269
  H      294.616    -141.409     269.905
  H      302.289    -143.368     273.240
  H      295.416    -142.665     269.008
  H      303.369    -142.450     272.150
  P      302.505    -139.833     276.423
  C      301.121    -140.488     278.515
  O      302.110    -140.883     277.579
  O      302.229    -138.405     277.088
  O      303.906    -139.947     275.908
  H      302.870    -137.746     276.752
  H      300.961    -141.277     279.219
  H      300.207    -140.278     278.001
  H      301.449    -139.610     279.032

 6  7  8  9  10  11  12  13  14  15  16  26  30  31  32  33  35 0
 6-311+G(2d,p)
 ****
 37  38 0
 6-311+G(2d,p)
 ****
 1  2  3  4  5  17  18  19  20  21  22  23  24  25 0
 3-21G
 ****
 27  28  29  34  36  39  40  41  42  43  44  45  46 0
 3-21G
 ****


