%nproc=1
%NoSave
%Mem=1900MB
#P OB98/GEN NMR

erre ene a

0 1
  C       18.266    -168.746      18.188
  O       18.367    -167.387      18.607
  P       17.077    -166.439      18.504
  C       17.963    -165.413      16.321
  O       16.856    -166.031      16.966
  C       17.568    -164.113      15.600
  O       16.718    -164.394      14.454
  C       16.823    -163.102      16.484
  O       17.243    -161.797      16.070
  C       15.377    -163.348      16.107
  O       14.529    -162.268      16.471
  C       15.521    -163.601      14.604
  N       14.363    -164.268      14.033
  C       13.409    -163.463      13.411
  O       13.513    -162.238      13.447
  N       12.340    -164.070      12.787
  C       12.172    -165.353      12.914
  N       11.117    -165.916      12.266
  C       13.065    -166.207      13.718
  C       14.139    -165.609      14.221
  O       17.035    -165.304      19.471
  O       15.866    -167.460      18.771
  H       14.889    -161.440      16.085
  H       15.156    -166.994      19.256
  H       12.838    -167.253      13.860
  H       14.859    -166.151      14.822
  H       15.687    -162.661      14.063
  H       15.011    -164.250      16.613
  H       17.029    -163.223      17.554
  H       18.489    -163.653      15.215
  H       10.501    -165.315      11.738
  H       18.387    -166.111      15.594
  H       10.947    -166.916      12.273
  H       18.752    -165.229      17.062
  P       17.837    -160.786      17.169
  C       15.898    -159.057      17.033
  O       16.610    -159.990      17.822
  O       18.509    -159.657      16.240
  O       18.857    -161.355      18.099
  H       19.218    -159.216      16.746
  H       14.949    -158.832      17.531
  H       15.679    -159.462      16.042
  H       16.478    -158.135      16.939
  H       19.210    -169.232      18.323
  H       17.991    -168.781      17.154
  H       17.521    -169.245      18.772

 3  4  5  6  7  8  9  10  11  12  13  23  27  28  29  30  32 0
 6-311+G(2d,p)
 ****
 34  35 0
 6-311+G(2d,p)
 ****
 1  2  14  15  16  17  18  19  20  21  22  24  25  26 0
 3-21G
 ****
 31  33  36  37  38  39  40  41  42  43  44  45  46 0
 3-21G
 ****


