%nproc=1
%NoSave
%Mem=1900MB
#P OB98/GEN NMR

erre ene a

0 1
  C      255.323     336.379    -419.366
  O      256.494     336.826    -420.014
  H      254.485     336.461    -420.064
  H      255.112     337.001    -418.493
  H      255.421     335.332    -419.062
  P      257.903     336.654    -419.268
  C      259.449     337.927    -420.891
  O      259.036     336.656    -420.402
  C      260.582     337.750    -421.904
  O      261.698     337.074    -421.284
  C      260.203     336.891    -423.105
  O      259.384     337.600    -424.012
  C      261.577     336.518    -423.630
  O      262.124     337.563    -424.439
  C      262.387     336.348    -422.327
  N      262.563     334.943    -421.964
  C      263.447     334.212    -422.750
  O      264.073     334.687    -423.695
  N      263.548     332.876    -422.450
  C      262.761     332.203    -421.562
  O      262.712     330.978    -421.500
  C      261.892     333.036    -420.714
  C      261.825     334.346    -420.960
  O      257.985     335.530    -418.291
  O      258.121     338.069    -418.547
  H      257.906     337.981    -417.598
  H      261.503     337.679    -425.187
  H      264.153     332.330    -423.047
  H      261.308     332.546    -419.948
  H      261.165     334.978    -420.373
  H      263.379     336.812    -422.429
  H      261.542     335.611    -424.240
  H      259.691     335.984    -422.766
  H      260.920     338.745    -422.222
  H      259.808     338.529    -420.048
  H      258.592     338.429    -421.349
  P      257.895     337.094    -424.326
  C      258.330     337.091    -426.861
  O      257.503     337.570    -425.807
  O      256.884     337.412    -423.277
  O      258.056     335.509    -424.498
  H      257.390     335.061    -423.940
  H      257.974     337.472    -427.795
  H      258.302     336.021    -426.878
  H      259.336     337.419    -426.702

 6  7  8  9  10  11  12  13  14  15  16  27  31  32  33  34  35 0
 6-311+G(2d,p)
 ****
 36  37 0
 6-311+G(2d,p)
 ****
 1  2  3  4  5  17  18  19  20  21  22  23  24  25 0
 3-21G
 ****
 26  28  29  30  38  39  40  41  42  43  44  45 0
 3-21G
 ****


