%nproc=1
%NoSave
%Mem=1900MB
#P OB98/GEN NMR

erre ene a

0 1
  C      156.791     -40.176     -82.771
  O      157.109     -41.461     -82.233
  P      157.743     -42.516     -83.264
  C      156.005     -44.402     -82.881
  O      156.551     -43.456     -83.789
  C      154.959     -45.286     -83.569
  O      153.823     -44.487     -84.015
  C      155.498     -46.030     -84.803
  O      154.836     -47.301     -84.838
  C      155.023     -45.142     -85.941
  O      155.065     -45.782     -87.206
  C      153.640     -44.770     -85.420
  N      150.724     -43.366     -89.363
  C      151.156     -44.577     -88.945
  N      151.936     -44.868     -87.882
  C      152.266     -43.746     -87.220
  C      151.904     -42.444     -87.526
  C      151.092     -42.269     -88.659
  N      150.665     -41.041     -89.107
  N      152.463     -41.555     -86.618
  C      153.202     -42.314     -85.830
  N      153.049     -43.643     -86.104
  O      158.610     -43.480     -82.327
  O      158.561     -41.882     -84.340
  H      154.627     -45.220     -87.878
  H      159.552     -43.230     -82.359
  H      150.835     -45.422     -89.546
  H      153.862     -41.952     -85.053
  H      152.930     -45.604     -85.500
  H      155.664     -44.255     -86.000
  H      156.579     -46.188     -84.783
  H      154.582     -46.008     -82.835
  H      155.538     -43.887     -82.039
  H      150.087     -41.017     -89.933
  H      150.926     -40.198     -88.617
  H      156.818     -45.004     -82.461
  P      155.650     -48.610     -84.387
  C      156.989     -48.894     -86.556
  O      157.035     -48.519     -85.194
  O      154.876     -49.738     -85.222
  O      155.719     -48.872     -82.920
  H      154.788     -49.486     -86.158
  H      157.968     -48.710     -87.004
  H      156.239     -48.302     -87.088
  H      156.755     -49.959     -86.643
  H      156.378     -39.559     -82.001
  H      156.077     -40.287     -83.561
  H      157.680     -39.720     -83.155

 3  4  5  6  7  8  9  10  11  12  22  25  29  30  31  32 0
 6-311+G(2d,p)
 ****
 33  36  37 0
 6-311+G(2d,p)
 ****
 1  2  13  14  15  16  17  18  19  20  21  23  24  26 0
 3-21G
 ****
 27  28  34  35  38  39  40  41  42  43  44  45  46  47  48 0
 3-21G
 ****


