%nproc=1
%NoSave
%Mem=1900MB
#P OB98/GEN NMR

erre ene a

0 1
  C      -86.081     222.428     -80.788
  O      -86.234     221.308     -79.937
  P      -87.211     221.357     -78.670
  C      -85.513     222.536     -77.158
  O      -86.793     222.613     -77.769
  C      -85.517     223.167     -75.766
  O      -85.735     224.596     -75.885
  C      -86.597     222.604     -74.827
  O      -86.023     222.536     -73.516
  C      -87.680     223.664     -74.880
  O      -88.536     223.621     -73.746
  C      -86.835     224.933     -75.017
  N      -87.600     226.058     -75.535
  C      -88.074     226.983     -74.603
  O      -87.955     226.763     -73.395
  N      -88.682     228.126     -75.065
  C      -88.961     228.234     -76.328
  N      -89.501     229.410     -76.753
  C      -88.693     227.159     -77.305
  C      -87.980     226.129     -76.854
  O      -87.342     220.071     -77.922
  O      -88.624     221.807     -79.280
  H      -89.309     221.166     -79.007
  H      -87.996     223.731     -72.934
  H      -89.057     227.243     -78.319
  H      -87.711     225.302     -77.501
  H      -86.404     225.215     -74.046
  H      -88.298     223.514     -75.774
  H      -86.942     221.610     -75.125
  H      -84.525     223.024     -75.323
  H      -89.632     230.140     -76.062
  H      -84.801     223.074     -77.789
  H      -89.455     229.706     -77.729
  H      -85.187     221.490     -77.107
  P      -86.247     221.195     -72.656
  C      -88.177     222.324     -71.339
  O      -87.749     221.213     -72.102
  O      -85.396     221.517     -71.331
  O      -85.764     219.921     -73.271
  H      -85.121     220.678     -70.917
  H      -89.198     222.134     -70.991
  H      -88.184     223.225     -71.958
  H      -87.533     222.470     -70.472
  H      -85.389     222.191     -81.569
  H      -85.711     223.258     -80.223
  H      -87.028     222.683     -81.216

 3  4  5  6  7  8  9  10  11  12  13  24  27  28  29  30  32 0
 6-311+G(2d,p)
 ****
 34  35 0
 6-311+G(2d,p)
 ****
 1  2  14  15  16  17  18  19  20  21  22  23  25  26 0
 3-21G
 ****
 31  33  36  37  38  39  40  41  42  43  44  45  46 0
 3-21G
 ****


