%nproc=1
%NoSave
%Mem=1900MB
#P OB98/GEN NMR

erre ene a

0 1
  C      157.167      10.358    -188.619
  O      157.265      11.148    -189.805
  P      156.633      10.753    -191.217
  C      156.013      12.039    -193.418
  O      156.677      12.045    -192.161
  C      155.659      13.451    -193.924
  O      154.564      13.985    -193.132
  C      156.844      14.402    -193.732
  O      157.880      14.449    -194.693
  C      156.204      15.756    -193.443
  O      156.055      16.553    -194.616
  C      154.831      15.381    -192.872
  N      153.794      18.824    -189.226
  C      153.871      18.995    -190.595
  N      153.696      20.256    -191.055
  N      154.113      18.026    -191.437
  C      154.351      16.838    -190.841
  C      154.327      16.544    -189.493
  C      154.001      17.615    -188.573
  O      153.911      17.513    -187.354
  N      154.644      15.228    -189.259
  C      154.884      14.734    -190.456
  N      154.714      15.671    -191.451
  O      155.349       9.997    -191.160
  O      157.748       9.777    -191.860
  H      155.729      15.978    -195.333
  H      157.265       9.121    -192.404
  H      153.580      19.601    -188.629
  H      155.177      13.709    -190.659
  H      154.030      15.948    -193.372
  H      156.825      16.332    -192.749
  H      153.626      21.064    -190.457
  H      157.338      14.111    -192.797
  H      153.963      20.425    -192.028
  H      155.294      13.416    -194.953
  H      155.108      11.438    -193.297
  H      156.626      11.526    -194.162
  P      159.243      13.607    -194.654
  C      159.934      11.215    -195.259
  O      159.026      12.271    -195.509
  O      159.319      13.054    -193.153
  O      160.476      14.382    -194.997
  H      160.222      12.750    -192.944
  H      159.888      10.498    -196.087
  H      159.653      10.699    -194.333
  H      160.959      11.588    -195.170
  H      157.677      10.852    -187.818
  H      157.614       9.401    -188.790
  H      156.137      10.229    -188.360

 3  4  5  6  7  8  9  10  11  12  23  26  30  31 0
 6-311+G(2d,p)
 ****
 33  35  36  37  38 0
 6-311+G(2d,p)
 ****
 1  2  13  14  15  16  17  18  19  20  21  22  24  25 0
 3-21G
 ****
 27  28  29  32  34  39  40  41  42  43  44  45  46  47  48  49 0
 3-21G
 ****


