%nproc=1
%NoSave
%Mem=1900MB
#P OB98/GEN NMR

erre ene a

0 1
  C     -151.990     -13.149       0.092
  O     -152.562     -14.335       0.607
  H     -152.763     -12.377       0.046
  H     -151.606     -13.321      -0.920
  H     -151.185     -12.806       0.747
  P     -151.594     -15.611       0.720
  C     -151.320     -17.493       2.477
  O     -151.991     -16.293       2.117
  C     -151.390     -17.714       3.986
  O     -150.485     -16.823       4.662
  C     -152.766     -17.467       4.595
  O     -153.588     -18.615       4.448
  C     -152.400     -17.227       6.050
  O     -152.201     -18.491       6.713
  C     -151.063     -16.474       5.945
  N     -150.586     -12.405       9.038
  C     -150.602     -13.730       9.299
  N     -150.788     -14.752       8.436
  C     -150.959     -14.297       7.184
  C     -150.971     -12.973       6.773
  C     -150.767     -11.996       7.760
  N     -150.753     -10.645       7.493
  N     -151.180     -12.884       5.410
  C     -151.232     -14.137       5.002
  N     -151.145     -15.029       6.040
  O     -150.143     -15.342       0.508
  O     -152.264     -16.597      -0.351
  H     -151.699     -19.059       6.096
  H     -153.236     -16.555      -0.292
  H     -150.449     -14.006      10.339
  H     -151.317     -14.450       3.967
  H     -150.352     -16.798       6.722
  H     -153.182     -16.699       6.601
  H     -153.236     -16.563       4.189
  H     -151.053     -18.740       4.192
  H     -150.272     -17.452       2.155
  H     -150.795     -10.019       8.283
  H     -151.017     -10.345       6.568
  H     -151.810     -18.318       1.949
  P     -154.966     -18.756       5.255
  C     -157.046     -20.247       4.987
  O     -155.865     -19.745       4.368
  O     -155.603     -17.461       5.624
  O     -154.593     -19.651       6.526
  H     -155.290     -19.572       7.206
  H     -157.560     -20.891       4.305
  H     -157.683     -19.430       5.255
  H     -156.782     -20.797       5.866

 6  7  8  9  10  11  12  13  14  15  25  28  32  33  34  35 0
 6-311+G(2d,p)
 ****
 36  39  40 0
 6-311+G(2d,p)
 ****
 1  2  3  4  5  16  17  18  19  20  21  22  23  24 0
 3-21G
 ****
 26  27  29  30  31  37  38  41  42  43  44  45  46  47 0
 3-21G
 ****
 48 0
 3-21G
 ****


