%nproc=1
%NoSave
%Mem=1900MB
#P OB98/GEN NMR

erre ene a

0 1
  C     -895.370    -127.482    -660.834
  O     -894.130    -127.677    -661.475
  H     -896.160    -127.911    -661.451
  H     -895.570    -126.410    -660.707
  H     -895.380    -127.976    -659.859
  P     -892.800    -127.092    -660.780
  C     -892.120    -124.663    -660.216
  O     -893.180    -125.616    -660.273
  C     -892.630    -123.291    -660.659
  O     -893.030    -123.315    -662.042
  C     -893.840    -122.781    -659.865
  O     -893.410    -122.214    -658.631
  C     -894.380    -121.737    -660.841
  O     -893.560    -120.554    -660.770
  C     -894.180    -122.442    -662.188
  N     -899.030    -122.383    -663.705
  C     -898.240    -121.364    -663.213
  N     -898.860    -120.155    -663.058
  N     -896.990    -121.506    -662.863
  C     -896.550    -122.769    -663.010
  C     -897.220    -123.872    -663.476
  C     -898.600    -123.686    -663.917
  O     -899.320    -124.568    -664.394
  N     -896.480    -125.019    -663.389
  C     -895.320    -124.608    -662.909
  N     -895.310    -123.245    -662.652
  O     -891.550    -127.147    -661.599
  O     -892.670    -127.921    -659.419
  H     -894.110    -119.814    -661.129
  H     -892.110    -128.719    -659.543
  H     -900.000    -122.214    -663.947
  H     -894.450    -125.230    -662.729
  H     -893.950    -121.737    -662.991
  H     -895.410    -121.449    -660.608
  H     -899.850    -120.029    -663.159
  H     -894.580    -123.568    -659.726
  H     -898.320    -119.420    -662.626
  H     -891.790    -122.584    -660.582
  H     -891.320    -125.011    -660.879
  H     -891.730    -124.601    -659.195
  P     -893.940    -122.798    -657.229
  C     -896.280    -123.154    -656.192
  O     -895.540    -122.862    -657.359
  O     -893.440    -122.062    -656.018
  O     -893.530    -124.349    -657.259
  H     -892.600    -124.511    -656.969
  H     -897.324    -123.164    -656.425
  H     -896.087    -122.407    -655.451
  H     -895.989    -124.113    -655.816

 6  7  8  9  10  11  12  13  14  15  26  29  33  34 0
 6-311+G(2d,p)
 ****
 36  38  39  40  41 0
 6-311+G(2d,p)
 ****
 1  2  3  4  5  16  17  18  19  20  21  22  23  24  25 0
 3-21G
 ****
 27  28  30  31  32  35  37  42  43  44  45  46  47 0
 3-21G
 ****
 48  49 0
 3-21G
 ****


