%nproc=1
%NoSave
%Mem=1900MB
#P OB98/GEN NMR

erre ene a

0 1
  C      117.048      32.213      86.713
  O      116.597      32.960      87.830
  P      117.562      33.245      89.071
  C      115.880      35.032      90.004
  O      116.700      33.909      90.238
  C      115.280      35.495      91.337
  O      116.316      35.616      92.333
  C      114.595      36.853      91.203
  O      113.206      36.691      90.964
  C      114.907      37.514      92.531
  O      113.996      37.058      93.548
  C      116.334      36.987      92.815
  N      117.470      37.679      92.178
  C      117.968      38.848      92.746
  O      117.537      39.341      93.783
  N      118.986      39.458      92.054
  C      119.561      38.993      90.907
  O      120.288      39.657      90.178
  C      119.180      37.633      90.517
  C      118.155      37.058      91.143
  O      118.472      34.453      88.550
  O      118.381      32.083      89.528
  H      113.113      37.399      93.316
  H      119.334      34.124      88.234
  H      119.256      40.379      92.385
  H      119.711      37.167      89.697
  H      117.829      36.064      90.845
  H      116.535      36.959      93.891
  H      114.781      38.594      92.473
  H      115.065      37.437      90.401
  H      114.564      34.740      91.685
  H      115.084      34.774      89.297
  H      116.466      35.838      89.552
  P      112.456      37.682      89.958
  C      110.745      35.775      90.015
  O      110.936      37.172      89.917
  O      113.107      37.864      88.627
  O      112.388      39.056      90.780
  H      113.117      39.647      90.499
  H      109.680      35.575      90.156
  H      111.300      35.370      90.866
  H      111.076      35.293      89.092
  H      116.259      32.134      85.995
  H      117.339      31.234      87.033
  H      117.887      32.707      86.269

 3  4  5  6  7  8  9  10  11  12  13  23  28  29  30  31  32 0
 6-311+G(2d,p)
 ****
 33  34 0
 6-311+G(2d,p)
 ****
 1  2  14  15  16  17  18  19  20  21  22  24  25  26  27 0
 3-21G
 ****
 35  36  37  38  39  40  41  42  43  44  45 0
 3-21G
 ****


