%nproc=1
%NoSave
%Mem=1900MB
#P OB98/GEN NMR

erre ene a

0 1
  C     -214.615     -66.073     -95.303
  O     -214.165     -66.606     -94.072
  H     -214.639     -64.982     -95.224
  H     -215.623     -66.428     -95.530
  H     -213.932     -66.349     -96.111
  P     -214.048     -68.197     -93.934
  C     -211.726     -68.255     -92.806
  O     -212.480     -68.528     -93.980
  C     -210.538     -67.359     -93.145
  O     -210.991     -66.054     -93.551
  C     -209.576     -67.141     -91.977
  O     -208.696     -68.248     -91.848
  C     -208.877     -65.870     -92.434
  O     -207.910     -66.185     -93.453
  C     -210.048     -65.072     -93.037
  N     -210.354     -60.394     -91.108
  C     -209.459     -60.922     -92.022
  N     -208.483     -60.092     -92.447
  N     -209.508     -62.153     -92.459
  C     -210.495     -62.883     -91.892
  C     -211.430     -62.480     -90.967
  C     -211.401     -61.100     -90.531
  O     -212.185     -60.587     -89.737
  N     -212.233     -63.520     -90.573
  C     -211.809     -64.541     -91.290
  N     -210.744     -64.212     -92.097
  O     -214.865     -69.009     -94.895
  O     -214.443     -68.486     -92.413
  H     -207.440     -66.986     -93.153
  H     -215.395     -68.677     -92.325
  H     -210.253     -59.444     -90.796
  H     -212.236     -65.538     -91.266
  H     -209.732     -64.446     -93.880
  H     -208.347     -65.360     -91.628
  H     -208.235     -59.252     -91.939
  H     -210.109     -66.930     -91.045
  H     -207.789     -60.473     -93.076
  H     -210.018     -67.802     -94.005
  H     -211.382     -69.212     -92.403
  H     -212.356     -67.762     -92.056
  P     -208.837     -69.280     -90.624
  C     -208.414     -71.556     -91.771
  O     -209.381     -70.633     -91.287
  O     -209.649     -68.780     -89.476
  O     -207.336     -69.658     -90.243
  H     -206.932     -69.045     -89.577
  H     -208.911     -72.409     -92.185
  H     -207.783     -71.867     -90.965
  H     -207.820     -71.087     -92.527

 6  7  8  9  10  11  12  13  14  15  26  29  33  34 0
 6-311+G(2d,p)
 ****
 36  38  39  40  41 0
 6-311+G(2d,p)
 ****
 1  2  3  4  5  16  17  18  19  20  21  22  23  24  25 0
 3-21G
 ****
 27  28  30  31  32  35  37  42  43  44  45  46  47 0
 3-21G
 ****
 48  49 0
 3-21G
 ****


