%nproc=1
%NoSave
%Mem=1900MB
#P OB98/GEN NMR

erre ene a

0 1
  C      492.239     786.507     131.546
  O      491.238     786.825     132.487
  H      491.961     785.580     131.030
  H      493.196     786.349     132.060
  H      492.342     787.309     130.805
  P      491.360     788.239     133.225
  C      490.384     787.603     135.580
  O      490.202     788.253     134.336
  C      489.109     786.875     136.013
  O      488.004     787.819     135.966
  C      488.734     785.697     135.115
  O      488.151     784.672     135.932
  C      487.677     786.269     134.185
  O      486.830     785.254     133.640
  C      486.974     787.266     135.123
  N      486.260     788.311     134.387
  C      484.892     788.099     134.168
  O      484.347     787.071     134.572
  N      484.185     789.039     133.447
  C      484.800     790.061     132.947
  N      484.052     790.935     132.220
  C      486.255     790.292     133.105
  C      486.901     789.389     133.828
  O      490.813     789.250     132.105
  O      492.733     788.558     133.728
  H      487.395     784.559     133.246
  H      490.008     788.936     131.661
  H      486.727     791.158     132.653
  H      487.979     789.488     134.013
  H      486.249     786.743     135.769
  H      488.144     786.791     133.351
  H      489.590     785.276     134.578
  H      489.222     786.568     137.051
  H      483.063     790.721     132.118
  H      490.672     788.323     136.354
  H      484.428     791.737     131.733
  H      491.213     786.877     135.467
  P      488.911     783.266     136.110
  C      486.944     781.584     136.353
  O      488.002     782.293     137.010
  O      490.341     783.353     136.511
  O      488.764     782.612     134.644
  H      489.609     782.170     134.434
  H      486.424     780.978     137.066
  H      487.355     780.960     135.587
  H      486.263     782.284     135.916

 6  7  8  9  10  11  12  13  14  15  16  26  30  31  32  33  35 0
 6-311+G(2d,p)
 ****
 37  38 0
 6-311+G(2d,p)
 ****
 1  2  3  4  5  17  18  19  20  21  22  23  24  25 0
 3-21G
 ****
 27  28  29  34  36  39  40  41  42  43  44  45  46 0
 3-21G
 ****


