%nproc=1
%NoSave
%Mem=1900MB
#P OB98/GEN NMR

erre ene a

0 1
  C      378.545    -871.913    -263.381
  O      379.933    -871.828    -263.672
  P      381.000    -871.488    -262.526
  C      380.670    -868.919    -262.534
  O      381.564    -870.001    -262.819
  C      381.276    -867.596    -262.984
  O      382.516    -867.310    -262.298
  C      381.641    -867.581    -264.475
  O      380.494    -867.491    -265.311
  C      382.562    -866.367    -264.534
  O      381.796    -865.146    -264.591
  C      383.308    -866.483    -263.181
  N      384.664    -866.995    -263.339
  C      385.563    -866.161    -264.029
  O      385.172    -865.131    -264.569
  N      386.883    -866.556    -264.127
  C      387.234    -867.721    -263.699
  N      388.543    -868.043    -263.763
  C      386.274    -868.675    -263.088
  C      385.033    -868.238    -262.923
  O      382.035    -872.521    -262.281
  O      380.082    -871.261    -261.217
  H      380.461    -871.796    -260.484
  H      382.387    -864.424    -264.285
  H      386.595    -869.681    -262.804
  H      384.263    -868.901    -262.471
  H      383.358    -865.496    -262.682
  H      383.223    -866.374    -265.409
  H      382.210    -868.489    -264.728
  H      380.568    -866.799    -262.735
  H      389.161    -867.363    -264.153
  H      380.527    -868.863    -261.439
  H      388.961    -868.759    -263.162
  H      379.706    -869.108    -263.006
  P      380.582    -868.245    -266.735
  C      382.167    -866.667    -268.083
  O      380.843    -867.103    -267.845
  O      379.096    -868.710    -266.992
  O      381.544    -869.384    -266.776
  H      379.100    -869.590    -267.452
  H      382.183    -866.193    -269.080
  H      382.871    -867.505    -268.082
  H      382.437    -865.946    -267.311
  H      378.007    -872.148    -264.275
  H      378.203    -870.975    -262.995
  H      378.379    -872.680    -262.653

 3  4  5  6  7  8  9  10  11  12  13  24  27  28  29  30  32 0
 6-311+G(2d,p)
 ****
 34  35 0
 6-311+G(2d,p)
 ****
 1  2  14  15  16  17  18  19  20  21  22  23  25  26 0
 3-21G
 ****
 31  33  36  37  38  39  40  41  42  43  44  45  46 0
 3-21G
 ****


