%nproc=1
%NoSave
%Mem=1900MB
#P OB98/GEN NMR

erre ene a

0 1
  C      108.833     441.484     328.706
  O      108.036     442.640     328.907
  P      108.047     443.761     327.758
  C      107.113     441.954     326.139
  O      108.067     442.987     326.351
  C      106.403     442.140     324.795
  O      105.708     440.905     324.464
  C      105.364     443.271     324.772
  O      105.401     443.839     323.457
  C      104.064     442.519     325.006
  O      102.899     443.247     324.659
  C      104.333     441.256     324.194
  N       99.725     439.197     323.371
  C      100.346     440.262     322.819
  N      101.575     440.744     323.081
  C      102.187     440.003     324.017
  C      101.676     438.899     324.684
  C      100.382     438.497     324.325
  N       99.745     437.410     324.901
  N      102.586     438.412     325.602
  C      103.632     439.207     325.487
  N      103.445     440.169     324.534
  O      109.521     444.373     327.863
  O      106.990     444.816     327.891
  H      102.943     443.514     323.723
  H      109.511     445.338     327.720
  H       99.775     440.798     322.060
  H      104.533     439.139     326.085
  H      104.241     441.436     323.115
  H      103.984     442.275     326.074
  H      105.559     444.058     325.505
  H      107.162     442.307     324.021
  H      106.361     441.987     326.932
  H       98.755     437.326     324.725
  H      100.154     437.032     325.748
  H      107.615     440.981     326.187
  P      105.352     445.434     323.296
  C      107.840     445.206     322.702
  O      106.883     445.885     323.488
  O      104.711     445.864     324.707
  O      104.627     445.952     322.104
  H      105.185     445.449     325.455
  H      108.816     445.675     322.857
  H      107.583     445.264     321.643
  H      107.900     444.158     323.018
  H      108.729     440.829     329.545
  H      109.859     441.771     328.603
  H      108.513     440.980     327.818

 3  4  5  6  7  8  9  10  11  12  22  25  29  30  31  32 0
 6-311+G(2d,p)
 ****
 33  36  37 0
 6-311+G(2d,p)
 ****
 1  2  13  14  15  16  17  18  19  20  21  23  24  26 0
 3-21G
 ****
 27  28  34  35  38  39  40  41  42  43  44  45  46  47  48 0
 3-21G
 ****


