%nproc=1
%NoSave
%Mem=1900MB
#P OB98/GEN NMR

erre ene a

0 1
  C      103.755      51.101    -140.095
  O      104.191      51.938    -139.044
  H      104.364      50.192    -140.093
  H      103.886      51.604    -141.057
  H      102.708      50.820    -139.961
  P      103.364      53.274    -138.727
  C      102.290      55.038    -140.273
  O      103.392      54.166    -140.058
  C      101.897      55.022    -141.749
  O      101.630      53.669    -142.180
  C      100.632      55.812    -142.057
  O      100.886      57.203    -142.066
  C      100.251      55.225    -143.407
  O      101.019      55.823    -144.462
  C      100.630      53.740    -143.221
  N       99.479      52.895    -142.906
  C       98.600      52.629    -143.951
  O       98.736      53.092    -145.083
  N       97.531      51.829    -143.642
  C       97.203      51.378    -142.397
  O       96.184      50.739    -142.158
  C       98.154      51.710    -141.327
  C       99.231      52.440    -141.626
  O      103.748      53.992    -137.477
  O      101.844      52.770    -138.668
  H      100.609      56.692    -144.642
  H      101.551      52.734    -137.738
  H       96.876      51.637    -144.383
  H       97.936      51.357    -140.329
  H       99.940      52.700    -140.849
  H      101.099      53.350    -144.133
  H       99.200      55.385    -143.645
  H       99.849      55.566    -141.332
  H      102.747      55.401    -142.334
  H      102.583      56.053    -139.984
  H      101.453      54.716    -139.644
  P       99.673      58.236    -141.919
  C       97.626      58.650    -143.416
  O       99.035      58.450    -143.375
  O       99.989      59.492    -141.177
  O       98.547      57.394    -141.154
  H       98.340      57.829    -140.305
  H       97.314      58.781    -144.431
  H       97.373      59.522    -142.850
  H       97.132      57.798    -142.998

 6  7  8  9  10  11  12  13  14  15  16  26  31  32  33  34  35 0
 6-311+G(2d,p)
 ****
 36  37 0
 6-311+G(2d,p)
 ****
 1  2  3  4  5  17  18  19  20  21  22  23  24  25 0
 3-21G
 ****
 27  28  29  30  38  39  40  41  42  43  44  45 0
 3-21G
 ****


