%nproc=1
%NoSave
%Mem=1900MB
#P OB98/GEN NMR

erre ene a

0 1
  C      179.178      51.838    -200.422
  O      179.466      51.478    -201.770
  P      180.960      51.677    -202.313
  C      181.612      49.112    -202.324
  O      181.861      50.430    -201.888
  C      182.579      48.151    -201.614
  O      182.297      48.112    -200.199
  C      182.490      46.717    -202.127
  O      183.317      46.505    -203.257
  C      182.912      45.922    -200.909
  O      184.342      45.958    -200.757
  C      182.227      46.721    -199.774
  N      180.823      46.397    -199.443
  C      180.544      45.462    -198.450
  O      181.399      44.860    -197.806
  N      179.218      45.234    -198.195
  C      178.166      45.948    -198.690
  O      177.001      45.739    -198.380
  C      178.523      47.023    -199.621
  C      179.805      47.188    -199.959
  O      181.529      52.879    -201.428
  O      181.051      51.968    -203.778
  H      184.549      45.589    -199.881
  H      181.716      53.654    -201.988
  H      178.995      44.509    -197.529
  H      177.725      47.646    -200.003
  H      180.079      47.982    -200.648
  H      182.799      46.634    -198.843
  H      182.645      44.872    -201.010
  H      181.451      46.461    -202.353
  H      183.600      48.530    -201.744
  H      181.733      49.030    -203.406
  H      180.575      48.841    -202.099
  P      182.671      46.456    -204.720
  C      184.401      48.166    -205.533
  O      183.025      47.868    -205.396
  O      181.239      46.046    -204.792
  O      183.626      45.443    -205.517
  H      183.248      44.533    -205.517
  H      184.505      49.068    -206.143
  H      184.925      47.342    -206.024
  H      184.840      48.351    -204.548
  H      178.146      51.647    -200.215
  H      179.384      52.878    -200.279
  H      179.788      51.259    -199.760

 3  4  5  6  7  8  9  10  11  12  13  23  28  29  30  31  32 0
 6-311+G(2d,p)
 ****
 33  34 0
 6-311+G(2d,p)
 ****
 1  2  14  15  16  17  18  19  20  21  22  24  25  26  27 0
 3-21G
 ****
 35  36  37  38  39  40  41  42  43  44  45 0
 3-21G
 ****


