%nproc=1
%NoSave
%Mem=1900MB
#P OB98/GEN NMR

erre ene a

0 1
  C      167.015      30.815    -177.116
  O      167.353      31.648    -176.003
  P      167.795      30.896    -174.650
  C      170.333      30.555    -175.118
  O      169.338      31.256    -174.385
  C      171.513      30.195    -174.218
  O      172.509      29.451    -174.943
  C      172.253      31.396    -173.649
  O      171.575      31.951    -172.532
  C      173.567      30.758    -173.219
  O      173.412      30.139    -171.929
  C      173.787      29.690    -174.304
  N      177.136      28.082    -177.750
  C      176.342      27.359    -176.883
  N      176.435      26.013    -176.963
  N      175.532      27.902    -176.013
  C      175.520      29.257    -176.066
  C      176.258      30.085    -176.878
  C      177.177      29.470    -177.814
  O      177.926      30.065    -178.581
  N      175.969      31.403    -176.647
  C      175.034      31.375    -175.718
  N      174.739      30.094    -175.321
  O      167.847      29.359    -175.094
  O      166.869      31.118    -173.503
  H      172.644      29.536    -171.992
  H      167.687      28.783    -174.323
  H      177.750      27.611    -178.393
  H      174.542      32.246    -175.304
  H      174.121      28.739    -173.878
  H      174.381      31.483    -173.127
  H      176.985      25.528    -177.656
  H      172.443      32.146    -174.428
  H      175.835      25.467    -176.360
  H      171.137      29.567    -173.399
  H      170.684      31.171    -175.950
  H      169.885      29.656    -175.555
  P      171.145      33.495    -172.625
  C      168.626      33.590    -173.238
  O      169.598      33.534    -172.213
  O      171.135      33.772    -174.203
  O      172.046      34.434    -171.897
  H      171.332      34.710    -174.381
  H      168.871      32.906    -174.055
  H      168.555      34.612    -173.623
  H      167.657      33.302    -172.820
  H      166.740      31.427    -177.949
  H      166.193      30.183    -176.852
  H      167.859      30.212    -177.379

 3  4  5  6  7  8  9  10  11  12  23  26  30  31  33  0
 6-311+G(2d,p)
 ****
 35  36  37  38 0
 6-311+G(2d,p)
 ****
 1  2  13  14  15  16  17  18  19  20  21  22  24  25  27  28  29 0
 3-21G
 ****
 32  34  39  40  41  42  43  44  45  46  47  48  49 0
 3-21G
 ****


