%nproc=1
%NoSave
%Mem=1900MB
#P OB98/GEN NMR

erre ene a

0 1
  C     -122.509    -911.854    -420.636
  O     -122.893    -912.191    -421.972
  P     -121.741    -912.599    -423.019
  C     -121.945    -914.009    -425.200
  O     -122.436    -912.916    -424.433
  C     -122.868    -914.280    -426.396
  O     -124.100    -914.928    -425.983
  C     -123.287    -913.004    -427.134
  O     -122.281    -912.596    -428.059
  C     -124.516    -913.490    -427.894
  O     -124.108    -914.225    -429.057
  C     -125.169    -914.441    -426.856
  N     -129.623    -915.117    -424.560
  C     -128.853    -916.005    -425.282
  N     -129.341    -917.263    -425.411
  N     -127.716    -915.693    -425.841
  C     -127.339    -914.393    -425.615
  C     -128.024    -913.420    -424.924
  C     -129.296    -913.772    -424.328
  O     -130.021    -913.025    -423.693
  N     -127.336    -912.242    -424.933
  C     -126.235    -912.504    -425.605
  N     -126.196    -913.793    -426.061
  O     -121.284    -914.048    -422.503
  O     -120.586    -911.637    -423.061
  H     -124.930    -914.500    -429.523
  H     -120.343    -914.215    -422.749
  H     -130.507    -915.399    -424.167
  H     -125.439    -911.785    -425.798
  H     -125.611    -915.327    -427.328
  H     -125.152    -912.671    -428.221
  H     -130.188    -917.590    -424.957
  H     -123.551    -912.208    -426.436
  H     -128.765    -917.925    -425.893
  H     -122.353    -914.943    -427.091
  H     -121.888    -914.912    -424.570
  H     -120.920    -913.803    -425.515
  P     -121.450    -911.266    -427.730
  C     -119.114    -910.380    -428.437
  O     -120.157    -911.303    -428.681
  O     -120.870    -911.557    -426.265
  O     -122.250    -910.001    -427.764
  H     -120.789    -910.737    -425.750
  H     -118.244    -910.652    -429.070
  H     -118.793    -910.409    -427.388
  H     -119.424    -909.368    -428.704
  H     -123.380    -911.608    -420.066
  H     -121.847    -911.014    -420.656
  H     -122.013    -912.688    -420.186

 3  4  5  6  7  8  9  10  11  12  23  26  30  31 0
 6-311+G(2d,p)
 ****
 33  35  36  37  38 0
 6-311+G(2d,p)
 ****
 1  2  13  14  15  16  17  18  19  20  21  22  24  25 0
 3-21G
 ****
 27  28  29  32  34  39  40  41  42  43  44  45  46  47  48  49 0
 3-21G
 ****


