%nproc=1
%NoSave
%Mem=1900MB
#P OB98/GEN NMR

erre ene a

0 1
  C     -175.871    -899.150    -643.125
  O     -175.537    -898.010    -643.899
  H     -175.316    -900.000    -643.520
  H     -176.945    -899.350    -643.213
  H     -175.605    -899.010    -642.079
  P     -175.954    -896.560    -643.347
  C     -173.714    -895.530    -642.552
  O     -174.923    -896.180    -642.168
  C     -173.660    -894.110    -641.981
  O     -173.605    -894.190    -640.529
  C     -172.391    -893.380    -642.439
  O     -172.594    -891.960    -642.493
  C     -171.393    -893.700    -641.333
  O     -170.330    -892.750    -641.244
  C     -172.303    -893.730    -640.107
  N     -170.099    -894.000    -635.515
  C     -170.259    -892.900    -636.344
  N     -169.753    -891.720    -635.885
  N     -170.822    -892.960    -637.522
  C     -171.199    -894.220    -637.880
  C     -171.083    -895.380    -637.140
  C     -170.489    -895.290    -635.832
  O     -170.312    -896.230    -635.057
  N     -171.574    -896.460    -637.837
  C     -171.988    -895.950    -638.983
  N     -171.806    -894.590    -639.045
  O     -177.314    -896.840    -642.537
  O     -176.143    -895.490    -644.392
  H     -169.696    -892.960    -641.949
  H     -177.830    -896.020    -642.458
  H     -169.688    -893.890    -634.596
  H     -172.434    -896.520    -639.792
  H     -172.427    -892.730    -639.684
  H     -170.939    -894.670    -641.556
  H     -169.154    -891.670    -635.078
  H     -172.024    -893.720    -643.411
  H     -169.589    -891.000    -636.593
  H     -174.583    -893.570    -642.240
  H     -173.700    -895.520    -643.647
  H     -172.851    -896.120    -642.220
  P     -171.853    -891.120    -643.638
  C     -173.469    -891.550    -645.683
  O     -172.214    -891.730    -645.065
  O     -170.306    -891.500    -643.451
  O     -172.070    -889.630    -643.563
  H     -169.794    -890.700    -643.192
  H     -173.475    -892.049    -646.630
  H     -173.648    -890.505    -645.829
  H     -174.236    -891.959    -645.059

 6  7  8  9  10  11  12  13  14  15  26  29  33  34 0
 6-311+G(2d,p)
 ****
 36  38  39  40  41 0
 6-311+G(2d,p)
 ****
 1  2  3  4  5  16  17  18  19  20  21  22  23  24  25 0
 3-21G
 ****
 27  28  30  31  32  35  37  42  43  44  45  46  47 0
 3-21G
 ****
 48  49 0
 3-21G
 ****


