%nproc=1
%NoSave
%Mem=1900MB
#P OB98/GEN NMR

erre ene a

0 1
  C      -13.384     -41.817     -30.154
  O      -13.241     -43.103     -29.588
  H      -14.212     -41.303     -29.658
  H      -13.610     -41.898     -31.221
  H      -12.470     -41.234     -30.011
  P      -12.045     -44.011     -30.152
  C       -9.454     -43.802     -30.194
  O      -10.699     -43.164     -29.938
  C       -8.448     -42.780     -30.716
  O       -8.945     -42.199     -31.943
  C       -8.205     -41.605     -29.775
  O       -7.317     -41.942     -28.724
  C       -7.640     -40.568     -30.737
  O       -6.236     -40.759     -30.954
  C       -8.413     -40.859     -32.030
  N      -10.545     -37.747     -35.457
  C       -9.520     -38.621     -35.546
  N       -9.023     -39.431     -34.586
  C       -9.709     -39.278     -33.440
  C      -10.769     -38.423     -33.198
  C      -11.195     -37.629     -34.275
  N      -12.215     -36.713     -34.175
  N      -11.178     -38.519     -31.883
  C      -10.385     -39.423     -31.344
  N       -9.487     -39.911     -32.249
  O      -12.277     -43.962     -31.737
  O      -12.008     -45.409     -29.635
  H       -5.968     -40.108     -31.631
  H      -12.795     -44.739     -32.015
  H       -9.031     -38.675     -36.514
  H      -10.417     -39.747     -30.310
  H       -7.767     -40.825     -32.915
  H       -7.775     -39.556     -30.354
  H       -9.156     -41.236     -29.375
  H       -7.508     -43.299     -30.941
  H       -9.596     -44.584     -30.947
  H       -9.093     -44.260     -29.267
  H      -12.451     -36.160     -34.983
  H      -12.633     -36.542     -33.270
  P       -7.410     -41.123     -27.352
  C       -9.268     -40.662     -25.593
  O       -8.950     -41.098     -26.904
  O       -7.121     -39.616     -27.805
  O       -6.467     -41.578     -26.289
  H       -6.197     -39.373     -27.609
  H      -10.328     -40.703     -25.451
  H       -8.929     -39.656     -25.460
  H       -8.787     -41.298     -24.879

 6  7  8  9  10  11  12  13  14  15  25  28  32  33  34  35 0
 6-311+G(2d,p)
 ****
 36  37  40 0
 6-311+G(2d,p)
 ****
 1  2  3  4  5  16  17  18  19  20  21  22  23  24 0
 3-21G
 ****
 26  27  29  30  31  38  39 41  42  43  44  45  46  47  48 0
 3-21G
 ****


