%nproc=1
%NoSave
%Mem=1900MB
#P OB98/GEN NMR

erre ene a

0 1
  C       76.097    -881.280    1024.499
  O       76.676    -882.340    1023.729
  P       76.182    -882.527    1022.213
  C       78.289    -883.565    1021.079
  O       77.453    -882.421    1021.240
  C       79.613    -883.371    1021.824
  O       79.409    -883.191    1023.247
  C       80.560    -884.554    1021.703
  O       81.288    -884.511    1020.490
  C       81.493    -884.304    1022.887
  O       82.468    -883.308    1022.535
  C       80.532    -883.760    1023.951
  N       81.558    -886.363    1028.248
  C       82.269    -885.438    1027.551
  N       81.930    -884.810    1026.412
  C       80.727    -885.196    1025.988
  C       79.884    -886.134    1026.582
  C       80.344    -886.734    1027.763
  N       79.620    -887.661    1028.464
  N       78.722    -886.276    1025.845
  C       78.860    -885.445    1024.840
  N       80.048    -884.769    1024.873
  O       75.384    -881.173    1021.923
  O       75.314    -883.729    1022.006
  H       82.008    -882.442    1022.541
  H       74.635    -881.351    1021.328
  H       83.235    -885.171    1027.983
  H       78.120    -885.282    1024.065
  H       80.987    -882.960    1024.544
  H       82.046    -885.200    1023.177
  H       80.026    -885.507    1021.839
  H       80.100    -882.469    1021.432
  H       78.479    -883.741    1020.014
  H       79.995    -888.025    1029.317
  H       78.702    -887.920    1028.116
  H       77.760    -884.445    1021.447
  P       80.810    -885.496    1019.311
  C       80.739    -883.827    1017.335
  O       80.013    -884.582    1018.279
  O       79.676    -886.375    1020.024
  O       81.892    -886.350    1018.738
  H       79.632    -887.271    1019.627
  H       80.058    -883.515    1016.532
  H       81.548    -884.417    1016.891
  H       81.155    -882.940    1017.803
  H       76.521    -881.280    1025.481
  H       75.039    -881.426    1024.567
  H       76.298    -880.343    1024.024

 3  4  5  6  7  8  9  10  11  12  22  25  29  30  31  32 0
 6-311+G(2d,p)
 ****
 33  36  37 0
 6-311+G(2d,p)
 ****
 1  2  13  14  15  16  17  18  19  20  21  23  24  26 0
 3-21G
 ****
 27  28  34  35  38  39  40  41  42  43  44  45  46  47  48 0
 3-21G
 ****


