%nproc=1
%NoSave
%Mem=1900MB
#P OB98/GEN NMR

erre ene a

0 1
  C      295.744     901.764     761.764
  O      295.318     902.413     760.576
  H      295.562     902.447     762.606
  H      296.801     901.536     761.697
  H      295.166     900.845     761.930
  P      295.448     901.563     759.222
  C      297.988     901.859     758.758
  O      296.958     901.008     759.178
  C      299.216     901.039     758.325
  O      298.941     900.422     757.025
  C      300.509     901.865     758.150
  O      301.649     901.040     758.451
  C      300.485     902.163     756.669
  O      301.743     902.625     756.221
  C      299.997     900.846     756.121
  N      300.893     902.737     751.473
  C      301.603     902.808     752.630
  N      301.295     902.279     753.840
  C      300.159     901.571     753.745
  C      299.326     901.428     752.659
  C      299.741     902.049     751.480
  N      299.012     902.022     750.308
  N      298.202     900.653     752.981
  C      298.348     900.363     754.250
  N      299.533     900.904     754.752
  O      295.439     902.690     758.069
  O      294.384     900.521     758.989
  H      301.689     902.937     755.305
  H      294.537     902.831     757.760
  H      302.556     903.362     752.598
  H      297.663     899.785     754.869
  H      300.756     900.065     756.169
  H      299.761     902.974     756.424
  H      300.533     902.765     758.805
  H      299.371     900.213     759.042
  H      298.265     902.525     759.580
  H      297.644     902.456     757.908
  H      299.371     902.519     749.501
  H      298.123     901.545     750.283
  P      302.242     901.042     759.917
  C      303.886     903.031     759.568
  O      302.807     902.503     760.295
  O      303.615     900.203     759.749
  O      301.407     900.401     760.978
  H      303.703     899.552     760.441
  H      304.131     904.001     759.947
  H      303.616     903.110     758.536
  H      304.733     902.385     759.667

 6  7  8  9  10  11  12  13  14  15  25  28  32  33  34  35 0
 6-311+G(2d,p)
 ****
 36  37  40 0
 6-311+G(2d,p)
 ****
 1  2  3  4  5  16  17  18  19  20  21  22  23  24 0
 3-21G
 ****
 26  27  29  30  31  38  39 41  42  43  44  45  46  47  48 0
 3-21G
 ****


