%nproc=1
%NoSave
%Mem=1900MB
#P OB98/GEN NMR

erre ene a

0 1
  C      290.732     157.117     291.286
  O      289.489     156.737     291.842
  H      290.703     156.936     290.208
  H      291.540     156.521     291.720
  H      290.913     158.181     291.460
  P      289.337     156.867     293.434
  C      289.948     154.411     294.027
  O      290.327     155.782     294.081
  C      290.166     153.765     295.395
  O      291.541     153.941     295.810
  C      289.322     154.380     296.505
  O      287.982     153.917     296.482
  C      290.083     153.906     297.739
  O      289.703     152.573     298.113
  C      291.555     153.947     297.255
  N      292.278     155.093     297.791
  C      293.033     154.850     298.941
  O      293.092     153.741     299.484
  N      293.681     155.931     299.466
  C      293.621     157.212     298.998
  O      294.171     158.149     299.563
  C      292.826     157.405     297.775
  C      292.190     156.357     297.240
  O      287.880     156.266     293.711
  O      289.490     158.253     293.973
  H      287.244     156.993     293.866
  H      289.559     152.084     297.275
  H      294.224     155.778     300.305
  H      292.762     158.411     297.365
  H      291.575     156.480     296.351
  H      292.077     153.034     297.568
  H      289.888     154.545     298.599
  H      289.364     155.473     296.460
  H      289.969     152.686     295.307
  H      290.569     153.887     293.288
  H      288.897     154.341     293.725
  P      286.831     154.866     297.075
  C      287.180     153.740     299.427
  O      287.067     154.930     298.658
  O      285.543     153.940     296.905
  O      286.740     156.195     296.400
  H      285.733     152.994     297.050
  H      287.334     153.993     300.455
  H      288.010     153.164     299.074
  H      286.282     153.167     299.331

 6  7  8  9  10  11  12  13  14  15  16  27  31  32  33  34  35 0
 6-311+G(2d,p)
 ****
 36  37 0
 6-311+G(2d,p)
 ****
 1  2  3  4  5  17  18  19  20  21  22  23  24  25 0
 3-21G
 ****
 26  28  29  30  38  39  40  41  42  43  44  45 0
 3-21G
 ****


