%nproc=1
%NoSave
%Mem=1900MB
#P OB98/GEN NMR

erre ene a

0 1
  C      -78.253    -226.266      82.665
  O      -79.041    -225.204      83.163
  H      -78.569    -226.533      81.653
  H      -77.209    -225.946      82.638
  H      -78.338    -227.136      83.324
  P      -80.627    -225.443      83.181
  C      -81.549    -223.732      81.467
  O      -81.159    -225.074      81.712
  C      -80.319    -222.855      81.268
  O      -79.466    -223.416      80.250
  C      -80.617    -221.433      80.805
  O      -81.042    -220.604      81.877
  C      -79.250    -221.017      80.281
  O      -78.410    -220.622      81.381
  C      -78.723    -222.318      79.658
  N      -76.284    -222.928      75.181
  C      -75.838    -222.926      76.458
  N      -76.539    -222.747      77.595
  C      -77.844    -222.569      77.328
  C      -78.444    -222.548      76.080
  C      -77.605    -222.731      74.968
  N      -78.067    -222.715      73.670
  N      -79.803    -222.355      76.196
  C      -80.024    -222.262      77.492
  N      -78.868    -222.379      78.218
  O      -81.177    -224.238      84.084
  O      -81.069    -226.767      83.710
  H      -78.750    -219.764      81.699
  H      -81.938    -224.555      84.606
  H      -74.771    -223.094      76.582
  H      -80.996    -222.117      77.946
  H      -77.668    -222.481      79.902
  H      -79.296    -220.176      79.586
  H      -81.338    -221.427      79.981
  H      -79.755    -222.847      82.211
  H      -82.122    -223.358      82.323
  H      -77.462    -223.045      72.938
  H      -79.061    -222.574      73.522
  H      -82.185    -223.706      80.575
  P      -81.725    -219.200      81.500
  C      -80.243    -217.126      81.984
  O      -80.514    -218.221      81.116
  O      -82.213    -218.643      82.920
  O      -82.844    -219.283      80.521
  H      -82.962    -218.028      82.794
  H      -79.415    -216.565      81.603
  H      -80.005    -217.495      82.960
  H      -81.105    -216.495      82.042

 6  7  8  9  10  11  12  13  14  15  25  28  32  33  34  35 0
 6-311+G(2d,p)
 ****
 36  39  40 0
 6-311+G(2d,p)
 ****
 1  2  3  4  5  16  17  18  19  20  21  22  23  24 0
 3-21G
 ****
 26  27  29  30  31  37  38  41  42  43  44  45  46  47  48 0
 3-21G
 ****


