%nproc=1
%NoSave
%Mem=1900MB
#P OB98/GEN NMR

erre ene a

0 1
  C      -91.351       5.931      94.076
  O      -91.014       6.259      92.739
  P      -89.620       7.019      92.498
  C      -91.004       9.010      91.547
  O      -89.954       8.583      92.408
  C      -91.706      10.231      92.138
  O      -92.121       9.956      93.492
  C      -90.838      11.479      92.226
  O      -90.688      12.090      90.955
  C      -91.632      12.300      93.237
  O      -92.754      12.925      92.593
  C      -92.121      11.217      94.215
  N      -92.049      10.677      99.306
  C      -93.068      10.810      98.428
  N      -93.006      10.973      97.090
  C      -91.731      10.984      96.671
  C      -90.589      10.880      97.450
  C      -90.781      10.718      98.831
  N      -89.738      10.587      99.724
  N      -89.454      10.958      96.671
  C      -89.903      11.092      95.440
  N      -91.271      11.098      95.386
  O      -89.251       6.631      90.991
  O      -88.529       6.652      93.454
  H      -93.296      12.214      92.197
  H      -88.285       6.551      90.880
  H      -94.065      10.782      98.857
  H      -89.280      11.181      94.560
  H      -93.142      11.398      94.565
  H      -91.041      13.093      93.709
  H      -89.851      11.233      92.638
  H      -92.602      10.430      91.538
  H      -91.735       8.203      91.432
  H      -89.960      10.626     100.709
  H      -88.801      10.760      99.388
  H      -90.584       9.239      90.563
  P      -89.190      12.328      90.425
  C      -89.305      14.826      91.021
  O      -88.677      13.584      91.288
  O      -89.455      12.974      88.988
  O      -88.318      11.122      90.448
  H      -90.105      13.697      89.027
  H      -88.901      15.574      91.707
  H      -90.385      14.745      91.175
  H      -89.095      15.137      89.994
  H      -92.297       5.432      94.093
  H      -91.410       6.826      94.659
  H      -90.601       5.287      94.485

 3  4  5  6  7  8  9  10  11  12  22  25  29  30  31  32 0
 6-311+G(2d,p)
 ****
 33  36  37 0
 6-311+G(2d,p)
 ****
 1  2  13  14  15  16  17  18  19  20  21  23  24  26 0
 3-21G
 ****
 27  28  34  35  38  39  40  41  42  43  44  45  46  47  48 0
 3-21G
 ****


