%nproc=1
%NoSave
%Mem=1900MB
#P OB98/GEN NMR

erre ene a

0 1
  C     -592.535    -216.085      24.657
  O     -591.364    -216.697      24.114
  P     -590.478    -215.779      23.132
  C     -591.085    -217.179      21.041
  O     -591.089    -215.901      21.654
  C     -591.747    -217.149      19.657
  O     -591.087    -216.187      18.786
  C     -591.726    -218.494      18.930
  O     -592.938    -218.581      18.168
  C     -590.556    -218.348      17.976
  O     -590.617    -219.293      16.917
  C     -590.741    -216.886      17.573
  N     -588.155    -216.442      13.251
  C     -589.268    -217.204      13.552
  N     -589.799    -217.908      12.536
  N     -589.811    -217.264      14.741
  C     -589.194    -216.466      15.647
  C     -588.098    -215.657      15.475
  C     -587.484    -215.624      14.163
  O     -586.502    -214.967      13.845
  N     -587.778    -214.982      16.635
  C     -588.653    -215.444      17.515
  N     -589.561    -216.299      16.955
  O     -589.090    -216.573      23.044
  O     -590.290    -214.384      23.633
  H     -589.880    -219.092      16.299
  H     -588.432    -216.163      23.629
  H     -587.768    -216.446      12.327
  H     -588.685    -215.168      18.553
  H     -591.562    -216.749      16.848
  H     -589.609    -218.488      18.512
  H     -589.461    -217.869      11.580
  H     -591.630    -219.368      19.589
  H     -590.645    -218.446      12.713
  H     -592.784    -216.812      19.786
  H     -591.617    -217.900      21.674
  H     -590.051    -217.540      20.978
  P     -594.052    -219.634      18.652
  C     -593.180    -221.581      17.173
  O     -593.428    -221.095      18.479
  O     -595.141    -219.559      17.477
  O     -594.665    -219.330      19.974
  H     -596.036    -219.617      17.861
  H     -592.372    -222.314      17.218
  H     -592.895    -220.770      16.490
  H     -594.086    -222.065      16.795
  H     -593.041    -216.783      25.290
  H     -593.185    -215.789      23.860
  H     -592.256    -215.224      25.227

 3  4  5  6  7  8  9  10  11  12  23  26  30  31 0
 6-311+G(2d,p)
 ****
 33  35  36  37  38 0
 6-311+G(2d,p)
 ****
 1  2  13  14  15  16  17  18  19  20  21  22  24  25 0
 3-21G
 ****
 27  28  29  32  34  39  40  41  42  43  44  45  46  47  48  49 0
 3-21G
 ****


