%nproc=1
%NoSave
%Mem=1900MB
#P OB98/GEN NMR

erre ene a

0 1
  C     -607.879    -331.622     211.699
  O     -609.205    -331.578     211.196
  P     -609.451    -332.166     209.721
  C     -610.286    -329.998     208.537
  O     -609.222    -330.939     208.718
  C     -610.276    -329.456     207.112
  O     -609.151    -328.573     206.930
  C     -610.131    -330.524     206.045
  O     -611.361    -331.191     205.841
  C     -609.674    -329.697     204.846
  O     -610.799    -329.155     204.134
  C     -608.844    -328.577     205.514
  N     -607.412    -328.716     205.278
  C     -606.943    -328.222     204.062
  O     -607.725    -327.713     203.255
  N     -605.603    -328.348     203.776
  C     -604.815    -328.922     204.625
  N     -603.490    -329.013     204.294
  C     -605.275    -329.477     205.915
  C     -606.578    -329.351     206.175
  O     -611.036    -332.392     209.681
  O     -608.695    -333.415     209.405
  H     -610.433    -328.445     203.568
  H     -611.271    -333.094     209.045
  H     -604.570    -329.952     206.589
  H     -607.001    -329.728     207.098
  H     -609.157    -327.590     205.127
  H     -609.101    -330.296     204.133
  H     -609.351    -331.247     206.314
  H     -611.199    -328.879     206.961
  H     -603.206    -328.629     203.403
  H     -610.146    -329.170     209.238
  H     -602.799    -329.419     204.904
  H     -611.234    -330.492     208.763
  P     -611.336    -332.796     205.745
  C     -611.600    -332.757     203.191
  O     -610.759    -333.106     204.278
  O     -612.895    -333.143     205.575
  O     -610.708    -333.536     206.870
  H     -613.018    -334.114     205.608
  H     -611.034    -332.882     202.268
  H     -611.924    -331.715     203.273
  H     -612.467    -333.420     203.164
  H     -607.857    -331.202     212.683
  H     -607.235    -331.059     211.056
  H     -607.546    -332.638     211.737

 3  4  5  6  7  8  9  10  11  12  13  21  23  27  28  29  30  32 0
 6-311+G(2d,p)
 ****
 34  35 0
 6-311+G(2d,p)
 ****
 1  2  14  15  16  17  18  19  20  22  24  25  26 0
 3-21G
 ****
 31  33  36  37  38  39  40  41  42  43  44  45  46 0
 3-21G
 ****


