%nproc=1
%NoSave
%Mem=1900MB
#P OB98/GEN NMR

erre ene a

0 1
  C     -422.273    -164.014    -306.849
  O     -421.973    -162.692    -306.425
  P     -420.457    -162.224    -306.183
  C     -421.280    -161.384    -303.897
  O     -420.554    -161.066    -305.077
  C     -421.192    -160.230    -302.901
  O     -419.799    -160.008    -302.580
  C     -421.713    -158.884    -303.394
  O     -423.113    -158.704    -303.264
  C     -420.995    -157.935    -302.439
  O     -421.671    -157.921    -301.169
  C     -419.622    -158.595    -302.303
  N     -415.390    -155.742    -302.690
  C     -416.117    -156.142    -301.622
  N     -417.243    -156.886    -301.602
  C     -417.584    -157.259    -302.849
  C     -416.942    -156.933    -304.031
  C     -415.790    -156.134    -303.922
  N     -415.038    -155.746    -305.009
  N     -417.602    -157.485    -305.113
  C     -418.615    -158.140    -304.583
  N     -418.643    -158.042    -303.222
  O     -419.712    -161.877    -307.427
  O     -419.794    -163.433    -305.377
  H     -422.587    -157.630    -301.335
  H     -418.819    -163.366    -305.417
  H     -415.747    -155.822    -300.654
  H     -419.350    -158.697    -305.152
  H     -419.214    -158.513    -301.288
  H     -420.974    -156.903    -302.797
  H     -421.384    -158.679    -304.420
  H     -421.707    -160.531    -301.976
  H     -420.834    -162.280    -303.451
  H     -414.161    -155.286    -304.828
  H     -415.242    -156.173    -305.904
  H     -422.318    -161.609    -304.153
  P     -423.914    -158.178    -304.557
  C     -424.991    -155.965    -303.672
  O     -425.152    -157.331    -303.989
  O     -424.262    -159.241    -305.539
  O     -422.936    -157.056    -305.145
  H     -422.833    -156.266    -304.593
  H     -425.975    -155.538    -303.461
  H     -424.549    -155.417    -304.507
  H     -424.364    -155.855    -302.785
  H     -423.332    -164.124    -306.952
  H     -421.911    -164.712    -306.124
  H     -421.802    -164.202    -307.791

 3  4  5  6  7  8  9  10  11  12  22  25  29  30  31  32 0
 6-311+G(2d,p)
 ****
 33  36  37 0
 6-311+G(2d,p)
 ****
 1  2  13  14  15  16  17  18  19  20  21  23  24  26 0
 3-21G
 ****
 27  28  34  35  38  39  40  41  42  43  44  45  46  47  48 0
 3-21G
 ****


