%nproc=1
%NoSave
%Mem=1900MB
#P OB98/GEN NMR

erre ene a

0 1
  C      502.870    -383.002    -525.184
  O      503.779    -383.923    -524.584
  P      504.102    -385.308    -525.327
  C      506.532    -384.608    -525.876
  O      505.284    -385.083    -526.383
  C      507.688    -385.272    -526.633
  O      507.665    -386.713    -526.478
  C      507.634    -385.048    -528.136
  O      507.888    -383.721    -528.589
  C      508.530    -386.143    -528.666
  O      509.906    -385.772    -528.612
  C      508.237    -387.290    -527.665
  N      507.356    -388.321    -528.230
  C      507.878    -389.052    -529.290
  O      508.988    -388.843    -529.781
  N      507.053    -390.017    -529.805
  C      505.771    -390.291    -529.394
  O      505.075    -391.158    -529.910
  C      505.268    -389.466    -528.290
  C      506.066    -388.537    -527.759
  O      502.915    -386.048    -525.845
  O      504.825    -386.158    -524.175
  H      510.095    -385.454    -527.713
  H      504.497    -387.081    -524.234
  H      507.414    -390.568    -530.575
  H      504.269    -389.660    -527.938
  H      505.721    -387.924    -526.947
  H      509.174    -387.779    -527.365
  H      508.303    -386.383    -529.711
  H      506.609    -385.279    -528.466
  H      508.632    -384.914    -526.204
  H      506.602    -384.822    -524.807
  H      506.560    -383.515    -525.984
  P      506.943    -382.961    -529.647
  C      506.472    -380.871    -528.184
  O      505.952    -382.006    -528.831
  O      506.365    -383.767    -530.760
  O      507.986    -381.895    -530.276
  H      507.732    -381.752    -531.206
  H      505.661    -380.341    -527.664
  H      506.922    -380.187    -528.901
  H      507.214    -381.175    -527.439
  H      502.772    -382.139    -524.559
  H      501.914    -383.469    -525.300
  H      503.242    -382.707    -526.143

 3  4  5  6  7  8  9  10  11  12  13  23  28  29  30  31  32 0
 6-311+G(2d,p)
 ****
 33  34 0
 6-311+G(2d,p)
 ****
 1  2  14  15  16  17  18  19  20  21  22  24  25  26  27 0
 3-21G
 ****
 35  36  37  38  39  40  41  42  43  44  45 0
 3-21G
 ****


