%nproc=1
%NoSave
%Mem=1900MB
#P OB98/GEN NMR

erre ene a

0 1
  C       20.080     345.585     131.970
  O       18.766     345.324     131.508
  H       20.021     346.010     132.974
  H       20.577     346.300     131.309
  H       20.655     344.654     132.010
  P       18.630     344.793     129.996
  C       18.450     347.214     129.027
  O       19.206     346.016     129.121
  C       19.302     348.324     128.431
  O       20.301     348.773     129.371
  C       20.081     347.922     127.179
  O       19.274     347.872     126.004
  C       21.093     349.053     127.118
  O       20.451     350.253     126.649
  C       21.480     349.169     128.614
  N       22.633     348.335     128.974
  C       23.894     348.944     128.899
  O       24.008     350.115     128.549
  N       25.003     348.189     129.197
  C       24.869     346.949     129.564
  N       26.010     346.255     129.843
  C       23.565     346.272     129.662
  C       22.498     347.012     129.358
  O       17.057     344.871     129.723
  O       19.247     343.464     129.711
  H       20.950     351.002     127.019
  H       16.874     344.706     128.760
  H       23.503     345.235     129.957
  H       21.503     346.590     129.407
  H       21.703     350.211     128.872
  H       21.927     348.852     126.444
  H       20.612     346.972     127.325
  H       18.641     349.182     128.222
  H       26.891     346.724     129.706
  H       18.128     347.492     130.046
  H       26.021     345.253     129.983
  H       17.562     347.055     128.416
  P       19.777     346.915     124.810
  C       20.880     348.785     123.371
  O       21.061     347.619     124.165
  O       18.648     347.113     123.694
  O       19.953     345.480     125.190
  H       18.501     346.287     123.200
  H       21.830     349.128     123.018
  H       20.421     349.551     123.961
  H       20.252     348.554     122.536

 6  7  8  9  10  11  12  13  14  15  16  26  30  31  32  33  35 0
 6-311+G(2d,p)
 ****
 37  38 0
 6-311+G(2d,p)
 ****
 1  2  3  4  5  17  18  19  20  21  22  23  24  25 0
 3-21G
 ****
 27  28  29  34  36  39  40  41  42  43  44  45  46 0
 3-21G
 ****


