%nproc=1
%NoSave
%Mem=1900MB
#P OB98/GEN NMR

erre ene a

0 1
  C      587.476       3.129     288.812
  O      588.224       1.960     288.550
  P      587.636       0.566     289.080
  C      589.627      -0.519     287.788
  O      588.805      -0.531     288.943
  C      590.435      -1.816     287.708
  O      589.554      -2.958     287.822
  C      591.184      -2.005     286.401
  O      592.370      -1.233     286.368
  C      591.435      -3.512     286.397
  O      592.596      -3.842     287.173
  C      590.154      -4.042     287.072
  N      589.215      -4.616     286.100
  C      589.005      -5.986     286.205
  O      589.593      -6.695     287.027
  N      588.132      -6.526     285.293
  C      587.503      -5.848     284.294
  O      586.777      -6.404     283.472
  C      587.783      -4.402     284.219
  C      588.611      -3.868     285.119
  O      586.584       0.135     287.941
  O      586.998       0.626     290.427
  H      592.383      -3.616     288.109
  H      585.817      -0.304     288.354
  H      587.945      -7.515     285.368
  H      587.296      -3.836     283.433
  H      588.845      -2.810     285.074
  H      590.413      -4.815     287.798
  H      591.602      -3.886     285.388
  H      590.531      -1.738     285.555
  H      591.124      -1.842     288.560
  H      590.299       0.332     287.832
  H      588.993      -0.412     286.895
  P      592.908      -0.760     284.934
  C      593.501       1.498     286.105
  O      593.902       0.459     285.235
  O      591.582      -0.084     284.336
  O      593.452      -1.884     284.117
  H      591.037       0.329     285.022
  H      592.888       1.127     286.920
  H      592.946       2.252     285.529
  H      594.405       1.968     286.527
  H      587.985       3.977     288.404
  H      587.367       3.253     289.869
  H      586.509       3.042     288.362

 3  4  5  6  7  8  9  10  11  12  13  23  28  29  30  31  32 0
 6-311+G(2d,p)
 ****
 33  34 0
 6-311+G(2d,p)
 ****
 1  2  14  15  16  17  18  19  20  21  22  24  25  26 0
 3-21G
 ****
 27  35  36  37  38  39  40  41  42  43  44  45 0
 3-21G
 ****


