%nproc=1
%NoSave
%Mem=1900MB
#P OB98/GEN NMR

erre ene a

0 1
  C     -505.844     316.862      83.420
  O     -506.021     315.682      84.230
  P     -506.808     314.398      83.687
  C     -509.076     315.135      84.649
  O     -508.074     314.123      84.641
  C     -510.221     314.792      85.628
  O     -510.909     313.608      85.234
  C     -509.739     314.565      87.065
  O     -509.500     315.798      87.718
  C     -510.925     313.758      87.616
  O     -511.995     314.635      88.014
  C     -511.329     312.905      86.423
  N     -512.217     308.012      87.614
  C     -513.000     309.117      87.673
  N     -512.695     310.373      87.337
  C     -511.433     310.461      86.884
  C     -510.513     309.421      86.767
  C     -510.957     308.147      87.158
  N     -510.153     307.022      87.111
  N     -509.304     309.892      86.267
  C     -509.491     311.179      86.079
  N     -510.763     311.571      86.439
  O     -505.928     313.196      83.467
  O     -507.469     314.860      82.304
  H     -511.704     315.116      88.819
  H     -507.576     314.102      81.708
  H     -514.026     308.950      88.042
  H     -508.758     311.865      85.690
  H     -512.412     312.804      86.338
  H     -510.651     313.172      88.508
  H     -508.844     313.936      87.060
  H     -510.928     315.622      85.584
  H     -509.500     315.221      83.634
  H     -510.534     306.157      87.434
  H     -509.194     307.122      86.808
  H     -508.622     316.095      84.920
  P     -508.113     316.566      87.485
  C     -507.033     316.021      89.739
  O     -507.581     317.035      88.934
  O     -508.150     317.622      86.429
  O     -507.085     315.379      87.076
  H     -506.406     315.742      86.492
  H     -507.851     315.476      90.236
  H     -506.407     316.483      90.501
  H     -506.418     315.315      89.158
  H     -505.294     317.595      83.973
  H     -506.801     317.260      83.155
  H     -505.306     316.607      82.531

 3  4  5  6  7  8  9  10  11  12  22  25  29  30  31  32 0
 6-311+G(2d,p)
 ****
 33  36  37 0
 6-311+G(2d,p)
 ****
 1  2  13  14  15  16  17  18  19  20  21  23  24  26 0
 3-21G
 ****
 27  28  34  35  38  39  40  41  42  43  44  45  46  47  48 0
 3-21G
 ****


