%nproc=1
%NoSave
%Mem=1900MB
#P OB98/GEN NMR

erre ene a

0 1
  C      228.954    -186.430     534.558
  O      229.466    -185.562     533.567
  P      228.737    -184.167     533.255
  C      227.471    -185.328     531.341
  O      228.295    -184.222     531.722
  C      226.527    -184.911     530.218
  O      225.578    -183.916     530.669
  C      227.224    -184.262     529.028
  O      228.093    -185.071     528.264
  C      226.036    -183.649     528.297
  O      225.340    -184.594     527.497
  C      225.154    -183.180     529.483
  N      225.217    -181.732     529.696
  C      224.231    -180.993     529.068
  O      223.337    -181.487     528.374
  N      224.305    -179.625     529.239
  C      225.275    -178.962     529.905
  O      225.319    -177.742     529.989
  C      226.312    -179.807     530.539
  C      226.236    -181.134     530.412
  O      229.523    -182.946     533.637
  O      227.335    -184.304     534.024
  H      225.899    -184.784     526.717
  H      226.775    -185.047     533.727
  H      223.602    -179.074     528.777
  H      227.086    -179.300     531.102
  H      226.981    -181.774     530.857
  H      224.101    -183.459     529.308
  H      226.358    -182.834     527.632
  H      227.834    -183.440     529.403
  H      225.944    -185.795     529.919
  H      226.880    -185.637     532.203
  H      228.099    -186.172     531.044
  P      229.542    -184.590     527.781
  C      228.587    -183.877     525.466
  O      229.568    -184.618     526.175
  O      230.714    -185.176     528.499
  O      229.462    -183.015     528.073
  H      230.371    -182.692     528.314
  H      228.733    -184.047     524.396
  H      228.705    -182.814     525.672
  H      227.599    -184.207     525.754
  H      229.570    -187.302     534.621
  H      227.956    -186.716     534.300
  H      228.948    -185.928     535.503

 3  4  5  6  7  8  9  10  11  12  13  23  28  29  30  31  32 0
 6-311+G(2d,p)
 ****
 33  34 0
 6-311+G(2d,p)
 ****
 1  2  14  15  16  17  18  19  20  21  22  24  25  26  27 0
 3-21G
 ****
 35  36  37  38  39  40  41  42  43  44  45 0
 3-21G
 ****


