%nproc=1
%NoSave
%Mem=1900MB
#P OB98/GEN NMR

erre ene a

0 1
  C     -489.803     858.610    -276.791
  O     -489.783     857.860    -275.599
  H     -488.788     858.727    -277.185
  H     -490.404     858.078    -277.537
  H     -490.246     859.591    -276.615
  P     -488.914     858.447    -274.385
  C     -487.177     856.559    -274.751
  O     -487.398     857.957    -274.610
  C     -485.755     856.304    -275.243
  O     -484.835     856.669    -274.174
  C     -485.458     854.844    -275.644
  O     -485.016     854.787    -277.006
  C     -484.317     854.418    -274.741
  O     -483.332     853.633    -275.418
  C     -483.733     855.747    -274.265
  N     -479.288     854.728    -271.987
  C     -479.574     855.179    -273.223
  N     -480.774     855.531    -273.733
  C     -481.742     855.405    -272.805
  C     -481.601     854.985    -271.499
  C     -480.304     854.617    -271.085
  N     -480.029     854.100    -269.839
  N     -482.828     854.972    -270.854
  C     -483.695     855.344    -271.768
  N     -483.088     855.603    -272.969
  O     -489.404     857.588    -273.128
  O     -489.075     859.914    -274.149
  H     -482.608     853.473    -274.778
  H     -489.605     858.185    -272.382
  H     -478.732     855.260    -273.897
  H     -484.767     855.408    -271.636
  H     -482.999     856.157    -274.970
  H     -484.714     853.832    -273.907
  H     -486.330     854.190    -275.514
  H     -485.545     856.979    -276.083
  H     -487.881     856.150    -275.483
  H     -479.094     853.760    -269.677
  H     -480.794     853.920    -269.206
  H     -487.355     856.063    -273.791
  P     -485.999     854.076    -278.068
  C     -485.483     851.732    -277.053
  O     -486.478     852.693    -277.411
  O     -485.014     853.620    -279.230
  O     -487.094     854.968    -278.568
  H     -485.490     853.572    -280.082
  H     -485.955     850.870    -276.631
  H     -484.815     852.161    -276.335
  H     -484.933     851.446    -277.925

 6  7  8  9  10  11  12  13  14  15  25  28  32  33  34  35 0
 6-311+G(2d,p)
 ****
 36  39  40 0
 6-311+G(2d,p)
 ****
 1  2  3  4  5  16  17  18  19  20  21  22  23  24 0
 3-21G
 ****
 26  27  29  30  31  37  38  41  42  43  44  45  46  47  48 0
 3-21G
 ****


