%nproc=1
%NoSave
%Mem=1900MB
#P OB98/GEN NMR

erre ene a

0 1
  C     -234.804     501.946    -155.341
  O     -235.737     501.355    -156.220
  H     -235.317     502.702    -154.742
  H     -234.010     502.432    -155.916
  H     -234.367     501.201    -154.669
  P     -235.338     500.007    -156.980
  C     -235.364     497.481    -156.446
  O     -235.569     498.795    -155.953
  C     -235.710     496.437    -155.378
  O     -234.900     496.685    -154.197
  C     -237.179     496.550    -154.940
  O     -237.694     495.304    -154.483
  C     -237.105     497.514    -153.767
  O     -238.213     497.395    -152.875
  C     -235.766     497.132    -153.138
  N     -234.636     499.133    -148.587
  C     -235.482     498.084    -148.895
  N     -236.105     497.482    -147.852
  N     -235.710     497.672    -150.114
  C     -235.079     498.405    -151.061
  C     -234.237     499.483    -150.882
  C     -233.963     499.904    -149.528
  O     -233.244     500.844    -149.200
  N     -233.793     499.975    -152.088
  C     -234.366     499.205    -152.988
  N     -235.139     498.222    -152.417
  O     -233.739     500.083    -157.070
  O     -235.955     499.819    -158.337
  H     -238.197     496.494    -152.510
  H     -233.412     499.519    -157.796
  H     -234.470     499.392    -147.632
  H     -234.246     499.304    -154.060
  H     -235.892     496.299    -152.437
  H     -237.116     498.531    -154.161
  H     -236.103     497.895    -146.929
  H     -237.818     496.934    -155.727
  H     -236.941     496.943    -148.074
  H     -235.457     495.432    -155.732
  H     -234.311     497.407    -156.731
  H     -235.952     497.317    -157.355
  P     -238.435     494.350    -155.539
  C     -237.168     494.196    -157.861
  O     -237.363     493.720    -156.545
  O     -239.266     495.360    -156.450
  O     -239.310     493.304    -154.916
  H     -240.223     495.207    -156.344
  H     -236.403     493.621    -158.339
  H     -236.874     495.224    -157.828
  H     -238.080     494.104    -158.413

 6  7  8  9  10  11  12  13  14  15  26  29  33  34 0
 6-311+G(2d,p)
 ****
 36  38  39  40  41 0
 6-311+G(2d,p)
 ****
 1  2  3  4  5  16  17  18  19  20  21  22  23  24  25 0
 3-21G
 ****
 27  28  30  31  32  35  37  42  43  44  45  46  47 0
 3-21G
 ****
 48  49 0
 3-21G
 ****


