%nproc=1
%NoSave
%Mem=1900MB
#P OB98/GEN NMR

erre ene a

0 1
  C      815.921    -726.267    -124.089
  O      815.913    -724.837    -124.000
  P      814.576    -724.120    -123.495
  C      814.504    -722.110    -125.148
  O      814.684    -722.549    -123.815
  C      814.702    -720.595    -125.243
  O      816.095    -720.225    -125.219
  C      814.145    -719.977    -126.524
  O      812.746    -719.757    -126.433
  C      814.888    -718.654    -126.566
  O      814.257    -717.714    -125.678
  C      816.275    -719.042    -126.033
  N      819.482    -716.996    -129.461
  C      818.624    -716.434    -128.589
  N      817.782    -717.045    -127.724
  C      817.911    -718.381    -127.799
  C      818.743    -719.093    -128.645
  C      819.559    -718.349    -129.503
  N      820.443    -718.932    -130.396
  N      818.603    -720.454    -128.445
  C      817.695    -720.562    -127.487
  N      817.248    -719.328    -127.074
  O      814.708    -724.184    -121.905
  O      813.317    -724.780    -123.968
  H      814.182    -718.158    -124.801
  H      813.822    -724.293    -121.502
  H      818.590    -715.346    -128.586
  H      817.338    -721.483    -127.067
  H      816.704    -718.268    -125.382
  H      814.892    -718.200    -127.558
  H      814.421    -720.591    -127.404
  H      814.206    -720.134    -124.371
  H      813.508    -722.376    -125.502
  H      821.017    -718.325    -130.966
  H      820.521    -719.938    -130.410
  H      815.215    -722.638    -125.793
  P      811.828    -720.375    -127.602
  C      810.714    -718.151    -128.365
  O      810.570    -719.398    -127.721
  O      811.237    -721.696    -126.924
  O      812.560    -720.661    -128.874
  H      811.074    -722.376    -127.612
  H      809.722    -717.760    -128.619
  H      811.308    -718.259    -129.287
  H      811.206    -717.438    -127.693
  H      816.877    -726.597    -124.439
  H      815.161    -726.586    -124.772
  H      815.731    -726.686    -123.123

 3  4  5  6  7  8  9  10  11  12  22  25  29  30  31  32 0
 6-311+G(2d,p)
 ****
 33  36  37 0
 6-311+G(2d,p)
 ****
 1  2  13  14  15  16  17  18  19  20  21  23  24  26 0
 3-21G
 ****
 27  28  34  35  38  39  40  41  42  43  44  45  46  47  48 0
 3-21G
 ****


