%nproc=1
%NoSave
%Mem=1900MB
#P OB98/GEN NMR

erre ene a

0 1
  C     -866.785     308.540     471.163
  O     -865.734     309.450     471.424
  H     -866.486     307.547     471.506
  H     -866.988     308.494     470.088
  H     -867.690     308.841     471.701
  P     -865.963     310.960     470.930
  C     -864.813     312.498     469.189
  O     -865.007     311.171     469.659
  C     -863.625     312.555     468.232
  O     -862.391     312.278     468.933
  C     -863.699     311.577     467.069
  O     -864.482     312.106     466.012
  C     -862.228     311.446     466.699
  O     -861.792     312.562     465.895
  C     -861.549     311.462     468.073
  N     -858.546     307.403     468.178
  C     -858.495     308.527     467.381
  N     -857.507     308.574     466.450
  N     -859.334     309.526     467.476
  C     -860.299     309.322     468.404
  C     -860.462     308.251     469.255
  C     -859.487     307.180     469.173
  O     -859.431     306.196     469.907
  N     -861.550     308.422     470.071
  C     -862.065     309.579     469.687
  N     -861.344     310.157     468.681
  O     -865.258     311.837     472.070
  O     -867.386     311.366     470.745
  H     -860.823     312.549     465.829
  H     -865.789     312.645     472.223
  H     -857.852     306.681     468.080
  H     -862.945     310.035     470.117
  H     -860.565     311.946     468.038
  H     -862.047     310.552     466.098
  H     -857.032     307.739     466.146
  H     -864.081     310.602     467.398
  H     -857.520     309.363     465.818
  H     -863.550     313.589     467.863
  H     -864.630     313.154     470.043
  H     -865.716     312.832     468.672
  P     -865.457     311.106     465.221
  C     -865.102     309.194     463.503
  O     -864.551     309.942     464.576
  O     -865.902     311.978     463.950
  O     -866.643     310.643     465.998
  H     -866.825     312.281     464.068
  H     -864.393     308.462     463.178
  H     -865.333     309.852     462.691
  H     -865.995     308.705     463.831

 6  7  8  9  10  11  12  13  14  15  26  29  33  34 0
 6-311+G(2d,p)
 ****
 36  38  39  40  41 0
 6-311+G(2d,p)
 ****
 1  2  3  4  5  16  17  18  19  20  21  22  23  24  25 0
 3-21G
 ****
 27  28  30  31  32  35  37  42  43  44  45  46  47 0
 3-21G
 ****
 48  49 0
 3-21G
 ****


