%nproc=1
%NoSave
%Mem=1900MB
#P OB98/GEN NMR

erre ene a

0 1
  C      336.913     -81.502     150.341
  O      337.514     -81.244     149.088
  H      336.234     -82.357     150.270
  H      337.697     -81.733     151.066
  H      336.364     -80.618     150.683
  P      336.517     -80.988     147.858
  C      338.358     -81.641     146.153
  O      337.048     -81.897     146.646
  C      338.795     -82.762     145.219
  O      338.919     -84.003     145.950
  C      337.823     -83.061     144.082
  O      337.942     -82.126     143.019
  C      338.297     -84.447     143.664
  O      339.459     -84.327     142.814
  C      338.695     -85.082     145.003
  N      336.407     -89.664     144.564
  C      337.398     -89.076     143.850
  N      337.947     -87.853     144.016
  C      337.387     -87.219     145.058
  C      336.375     -87.687     145.881
  C      335.874     -88.971     145.594
  N      334.856     -89.558     146.321
  N      336.064     -86.768     146.856
  C      336.875     -85.752     146.628
  N      337.691     -85.975     145.551
  O      336.875     -79.497     147.389
  O      335.063     -81.127     148.174
  H      339.167     -83.880     142.001
  H      336.057     -79.052     147.094
  H      337.808     -89.668     143.035
  H      336.912     -84.845     147.221
  H      339.637     -85.636     144.924
  H      337.543     -85.011     143.108
  H      336.792     -83.124     144.446
  H      339.787     -82.505     144.824
  H      339.056     -81.578     146.992
  H      334.676     -90.540     146.199
  H      334.462     -89.034     147.100
  H      338.353     -80.683     145.620
  P      336.692     -81.977     142.020
  C      338.477     -81.066     140.371
  O      337.327     -81.882     140.547
  O      336.181     -80.484     142.297
  O      335.602     -82.978     142.211
  H      335.234     -80.405     142.068
  H      338.785     -81.100     139.347
  H      339.269     -81.427     140.994
  H      338.243     -80.057     140.640

 6  7  8  9  10  11  12  13  14  15  25  28  32  33  34  35 0
 6-311+G(2d,p)
 ****
 36  39  40 0
 6-311+G(2d,p)
 ****
 1  2  3  4  5  16  17  18  19  20  21  22  23  24 0
 3-21G
 ****
 26  27  29  30  31  37  38  41  42  43  44  45  46  47  48 0
 3-21G
 ****


