%nproc=1
%NoSave
%Mem=1900MB
#P OB98/GEN NMR

erre ene a

0 1
  C      184.233      10.171    -117.010
  O      183.669      10.939    -115.965
  H      185.241       9.868    -116.715
  H      184.301      10.761    -117.928
  H      183.636       9.273    -117.188
  P      182.216      11.574    -116.185
  C      181.170      13.251    -117.856
  O      182.361      12.631    -117.380
  C      181.311      13.625    -119.329
  O      181.782      12.495    -120.090
  C      180.005      14.054    -119.990
  O      179.651      15.363    -119.589
  C      180.370      13.896    -121.457
  O      181.162      15.003    -121.913
  C      181.216      12.598    -121.418
  N      180.456      11.398    -121.753
  C      180.452      11.029    -123.103
  O      181.052      11.710    -123.934
  N      179.750       9.908    -123.472
  C      179.147       9.195    -122.574
  N      178.473       8.094    -123.005
  C      179.155       9.530    -121.138
  C      179.813      10.639    -120.803
  O      181.538      12.113    -114.962
  O      181.372      10.389    -116.851
  H      181.360      14.826    -122.854
  H      180.888       9.887    -116.169
  H      178.646       8.901    -120.422
  H      179.868      10.957    -119.765
  H      182.060      12.672    -122.117
  H      179.492      13.844    -122.099
  H      179.207      13.340    -119.754
  H      182.068      14.415    -119.407
  H      178.513       7.893    -123.999
  H      181.013      14.150    -117.252
  H      178.110       7.384    -122.387
  H      180.309      12.589    -117.716
  P      178.134      15.754    -119.250
  C      175.940      15.902    -120.583
  O      177.333      15.641    -120.638
  O      177.957      17.046    -118.528
  O      177.590      14.488    -118.435
  H      177.926      14.508    -117.504
  H      175.519      15.797    -121.561
  H      175.778      16.899    -120.230
  H      175.473      15.207    -119.917

 6  7  8  9  10  11  12  13  14  15  16  26  30  31  32  33  35 0
 6-311+G(2d,p)
 ****
 37  38 0
 6-311+G(2d,p)
 ****
 1  2  3  4  5  17  18  19  20  21  22  23  24  25 0
 3-21G
 ****
 27  28  29  34  36  39  40  41  42  43  44  45  46 0
 3-21G
 ****


