%nproc=1
%NoSave
%Mem=1900MB
#P OB98/GEN NMR

erre ene a

0 1
  C      200.637    -955.248     113.544
  O      199.235    -955.264     113.716
  H      200.981    -954.217     113.621
  H      200.907    -955.638     112.563
  H      201.120    -955.839     114.331
  P      198.458    -956.662     113.586
  C      198.759    -956.936     111.034
  O      199.088    -957.431     112.328
  C      200.007    -956.896     110.148
  O      200.438    -958.271     109.931
  C      199.741    -956.254     108.771
  O      200.649    -955.205     108.461
  C      199.675    -957.457     107.833
  O      200.005    -957.162     106.495
  C      200.592    -958.478     108.513
  N      200.288    -959.870     108.167
  C      201.119    -960.488     107.241
  O      202.097    -959.971     106.709
  N      200.795    -961.785     106.929
  C      199.736    -962.498     107.432
  O      199.497    -963.656     107.118
  C      198.880    -961.768     108.388
  C      199.190    -960.514     108.701
  O      196.971    -956.564     113.574
  O      198.986    -957.512     114.834
  H      200.769    -956.551     106.516
  H      198.287    -957.545     115.519
  H      201.400    -962.251     106.279
  H      198.029    -962.304     108.796
  H      198.573    -959.955     109.404
  H      201.631    -958.297     108.251
  H      198.650    -957.840     107.835
  H      198.763    -955.748     108.769
  H      200.808    -956.381     110.683
  H      198.345    -955.931     111.152
  H      198.005    -957.587     110.576
  P      200.490    -953.689     108.910
  C      199.309    -952.353     106.980
  O      199.195    -953.077     108.185
  O      201.732    -952.857     108.878
  O      200.021    -953.789     110.454
  H      200.395    -953.006     110.900
  H      198.338    -952.033     106.663
  H      199.742    -952.979     106.228
  H      199.933    -951.498     107.135

 6  7  8  9  10  11  12  13  14  15  16  26  31  32  33  34  35 0
 6-311+G(2d,p)
 ****
 36  37 0
 6-311+G(2d,p)
 ****
 1  2  3  4  5  17  18  19  20  21  22  23  24  25 0
 3-21G
 ****
 27  28  29  30  38  39  40  41  42  43  44  45 0
 3-21G
 ****


