%nproc=1
%NoSave
%Mem=1900MB
#P OB98/GEN NMR

erre ene a

0 1
  C       71.078    -216.856     -45.788
  O       70.453    -216.645     -47.058
  P       69.524    -215.338     -47.179
  C       67.196    -216.472     -47.017
  O       68.155    -215.631     -46.390
  C       66.363    -217.242     -45.985
  O       67.178    -218.237     -45.296
  C       65.740    -216.349     -44.901
  O       64.471    -216.925     -44.558
  C       66.693    -216.528     -43.734
  O       66.092    -216.138     -42.500
  C       67.011    -218.015     -43.875
  N       68.660    -220.661     -39.901
  C       67.370    -220.363     -40.296
  N       66.373    -220.885     -39.549
  N       67.083    -219.614     -41.332
  C       68.186    -219.194     -42.005
  C       69.511    -219.438     -41.723
  C       69.812    -220.238     -40.557
  O       70.935    -220.539     -40.166
  N       70.343    -218.860     -42.664
  C       69.507    -218.220     -43.466
  N       68.191    -218.432     -43.145
  O       69.088    -215.344     -48.720
  O       70.218    -214.070     -46.802
  H       66.016    -215.160     -42.504
  H       69.630    -214.708     -49.225
  H       68.820    -221.228     -39.083
  H       69.801    -217.608     -44.306
  H       66.188    -218.650     -43.522
  H       67.596    -215.918     -43.881
  H       66.518    -221.513     -38.772
  H       65.616    -215.301     -45.193
  H       65.411    -220.716     -39.843
  H       65.567    -217.781     -46.519
  H       67.697    -217.186     -47.675
  H       66.554    -215.861     -47.664
  P       63.157    -216.029     -44.771
  C       63.373    -214.699     -42.557
  O       63.386    -214.661     -43.969
  O       62.052    -216.792     -43.898
  O       62.716    -215.893     -46.195
  H       61.192    -216.769     -44.363
  H       63.973    -213.871     -42.177
  H       63.784    -215.639     -42.171
  H       62.345    -214.584     -42.198
  H       71.667    -217.748     -45.824
  H       70.327    -216.955     -45.033
  H       71.708    -216.022     -45.557

 3  4  5  6  7  8  9  10  11  12  23  26  30  31 0
 6-311+G(2d,p)
 ****
 33  35  36  37  38 0
 6-311+G(2d,p)
 ****
 1  2  13  14  15  16  17  18  19  20  21  22  24  25 0
 3-21G
 ****
 27  28  29  32  34  39  40  41  42  43  44  45  46  47  48  49 0
 3-21G
 ****


