%nproc=1
%NoSave
%Mem=1900MB
#P OB98/GEN NMR

erre ene a

0 1
  C     -189.309      48.225     -15.680
  O     -188.134      47.803     -16.345
  H     -189.099      49.161     -15.158
  H     -189.614      47.474     -14.946
  H     -190.114      48.392     -16.400
  P     -188.238      46.446     -17.194
  C     -186.097      45.031     -16.769
  O     -186.733      46.025     -17.561
  C     -184.590      45.084     -16.988
  O     -184.294      44.855     -18.388
  C     -183.962      46.429     -16.659
  O     -183.781      46.613     -15.264
  C     -182.660      46.349     -17.438
  O     -181.653      45.638     -16.704
  C     -183.066      45.560     -18.686
  N     -181.478      46.550     -23.437
  C     -181.162      45.567     -22.567
  N     -181.638      45.366     -21.319
  C     -182.561      46.296     -21.012
  C     -182.989      47.353     -21.796
  C     -182.409      47.464     -23.069
  N     -182.711      48.476     -23.949
  N     -183.915      48.119     -21.118
  C     -184.053      47.532     -19.947
  N     -183.257      46.422     -19.836
  O     -188.848      46.938     -18.591
  O     -189.066      45.370     -16.572
  H     -182.077      44.819     -16.383
  H     -189.805      46.751     -18.610
  H     -180.416      44.855     -22.911
  H     -184.704      47.868     -19.148
  H     -182.317      44.808     -18.966
  H     -182.272      47.344     -17.652
  H     -184.573      47.244     -17.076
  H     -184.121      44.279     -16.405
  H     -186.471      44.041     -17.054
  H     -186.338      45.208     -15.714
  H     -182.206      48.536     -24.818
  H     -183.316      49.229     -23.641
  P     -184.448      47.900     -14.585
  C     -182.223      48.681     -13.478
  O     -183.570      48.270     -13.300
  O     -185.817      47.339     -13.965
  O     -184.691      49.039     -15.520
  H     -186.516      48.017     -14.036
  H     -181.784      48.889     -12.524
  H     -182.196      49.563     -14.083
  H     -181.673      47.901     -13.961

 6  7  8  9  10  11  12  13  14  15  25  28  32  33  34  35 0
 6-311+G(2d,p)
 ****
 36  37  40 0
 6-311+G(2d,p)
 ****
 1  2  3  4  5  16  17  18  19  20  21  22  23  24 0
 3-21G
 ****
 26  27  29  30  31  38  39 41  42  43  44  45  46  47  48 0
 3-21G
 ****


