%nproc=1
%NoSave
%Mem=1900MB
#P OB98/GEN NMR

erre ene a

0 1
  C      382.955     321.047     248.330
  O      381.879     320.343     248.919
  H      383.310     320.483     247.466
  H      383.775     321.139     249.047
  H      382.641     322.042     247.994
  P      380.984     321.082     250.027
  C      380.438     320.494     252.480
  O      381.417     320.462     251.445
  C      380.447     319.187     253.272
  O      379.798     318.142     252.475
  C      381.856     318.681     253.631
  O      381.751     317.970     254.876
  C      382.130     317.712     252.502
  O      383.188     316.831     252.814
  C      380.753     317.072     252.316
  N      380.607     316.393     251.030
  C      380.856     315.025     251.016
  O      381.210     314.396     252.014
  N      380.724     314.406     249.803
  C      380.436     315.020     248.618
  O      380.364     314.412     247.554
  C      380.224     316.477     248.690
  C      380.313     317.086     249.866
  O      379.511     321.092     249.768
  O      381.586     322.566     250.100
  H      384.027     317.328     252.940
  H      380.886     323.201     250.340
  H      380.891     313.411     249.783
  H      380.010     316.992     247.758
  H      380.174     318.161     249.950
  H      380.558     316.335     253.115
  H      382.419     318.251     251.594
  H      382.595     319.482     253.703
  H      379.835     319.320     254.174
  H      379.453     320.639     252.012
  H      380.644     321.338     253.148
  P      382.740     318.269     256.114
  C      384.904     317.289     257.115
  O      384.024     317.311     255.990
  O      382.074     318.227     257.450
  O      383.333     319.727     255.810
  H      383.566     320.164     256.659
  H      385.717     316.621     256.919
  H      384.369     316.956     257.980
  H      385.285     318.273     257.289

 6  7  8  9  10  11  12  13  14  15  16  26  31  32  33  34  35 0
 6-311+G(2d,p)
 ****
 36  37 0
 6-311+G(2d,p)
 ****
 1  2  3  4  5  17  18  19  20  21  22  23  24  25 0
 3-21G
 ****
 27  28  29  30  38  39  40  41  42  43  44  45 0
 3-21G
 ****


