%nproc=1
%NoSave
%Mem=1900MB
#P OB98/GEN NMR

erre ene a

0 1
  C     -204.615      42.378    -239.268
  O     -205.364      43.572    -239.367
  H     -205.255      41.511    -239.454
  H     -203.821      42.399    -240.018
  H     -204.161      42.301    -238.276
  P     -206.649      43.688    -238.413
  C     -208.305      43.238    -240.357
  O     -207.804      42.808    -239.100
  C     -209.268      42.201    -240.923
  O     -208.545      41.031    -241.355
  C     -210.308      41.690    -239.932
  O     -211.381      42.605    -239.766
  C     -210.760      40.416    -240.633
  O     -211.712      40.742    -241.662
  C     -209.456      39.905    -241.265
  N     -209.935      35.137    -239.417
  C     -210.774      35.911    -240.143
  N     -210.585      37.170    -240.589
  C     -209.375      37.627    -240.228
  C     -208.414      36.954    -239.492
  C     -208.732      35.652    -239.072
  N     -207.876      34.878    -238.318
  N     -207.289      37.734    -239.330
  C     -207.563      38.860    -239.957
  N     -208.814      38.845    -240.512
  O     -207.150      45.194    -238.640
  O     -206.401      43.405    -236.969
  H     -211.966      39.900    -242.084
  H     -207.500      45.540    -237.798
  H     -211.725      35.455    -240.405
  H     -206.888      39.704    -240.039
  H     -209.620      39.547    -242.287
  H     -211.239      39.703    -239.959
  H     -209.847      41.431    -238.972
  H     -209.755      42.639    -241.804
  H     -207.470      43.371    -241.055
  H     -208.076      33.898    -238.219
  H     -206.975      35.271    -238.070
  H     -208.813      44.199    -240.225
  P     -211.864      42.916    -238.264
  C     -213.728      41.113    -238.356
  O     -212.523      41.553    -237.736
  O     -213.125      43.877    -238.482
  O     -210.834      43.539    -237.385
  H     -213.256      44.436    -237.692
  H     -214.048      40.198    -237.904
  H     -213.555      40.954    -239.400
  H     -214.486      41.857    -238.230

 6  7  8  9  10  11  12  13  14  15  25  28  32  33  34  35 0
 6-311+G(2d,p)
 ****
 36  39  40 0
 6-311+G(2d,p)
 ****
 1  2  3  4  5  16  17  18  19  20  21  22  23  24 0
 3-21G
 ****
 26  27  29  30  31  37  38  41  42  43  44  45  46  47  48 0
 3-21G
 ****


