%nproc=1
%NoSave
%Mem=1900MB
#P OB98/GEN NMR

erre ene a

0 1
  C     -805.863     646.226    -891.190
  O     -806.551     646.017    -892.410
  H     -806.407     646.962    -890.590
  H     -804.853     646.611    -891.380
  H     -805.800     645.293    -890.620
  P     -806.011     644.858    -893.360
  C     -807.800     643.099    -892.560
  O     -807.239     643.853    -893.630
  C     -808.876     642.167    -893.080
  O     -810.041     642.893    -893.540
  C     -808.446     641.340    -894.280
  O     -807.510     640.341    -893.960
  C     -809.796     640.811    -894.750
  O     -810.218     639.691    -893.950
  C     -810.708     642.029    -894.520
  N     -811.024     642.742    -895.750
  C     -811.751     642.002    -896.710
  O     -812.071     640.825    -896.450
  N     -812.052     642.598    -897.900
  C     -811.697     643.830    -898.110
  N     -812.012     644.349    -899.350
  C     -810.963     644.650    -897.120
  C     -810.685     644.064    -895.970
  O     -805.057     644.003    -892.390
  O     -805.350     645.305    -894.620
  H     -811.206     639.678    -893.980
  H     -805.504     643.734    -891.550
  H     -810.711     645.670    -897.360
  H     -810.141     644.570    -895.200
  H     -811.650     641.727    -894.030
  H     -809.787     640.451    -895.780
  H     -808.072     641.998    -895.070
  H     -809.200     641.507    -892.260
  H     -812.505     643.740    -900.000
  H     -808.209     643.770    -891.770
  H     -811.760     645.278    -899.630
  H     -806.986     642.522    -892.100
  P     -806.647     639.619    -895.110
  C     -805.305     641.755    -895.640
  O     -805.222     640.420    -895.200
  O     -807.351     639.482    -896.410
  O     -806.223     638.210    -894.430
  H     -805.695     638.318    -893.610
  H     -804.325     642.185    -895.663
  H     -805.924     642.314    -894.969
  H     -805.729     641.781    -896.622

 6  7  8  9  10  11  12  13  14  15  16  26  30  31  32  33  35 0
 6-311+G(2d,p)
 ****
 37  38 0
 6-311+G(2d,p)
 ****
 1  2  3  4  5  17  18  19  20  21  22  23  24  25 0
 3-21G
 ****
 27  28  29  34  36  39  40  41  42  43  44  45  46 0
 3-21G
 ****


