%nproc=1
%NoSave
%Mem=1900MB
#P OB98/GEN NMR

erre ene a

0 1
  C      142.506     396.026    -404.788
  O      142.360     394.987    -405.757
  P      142.512     395.355    -407.311
  C      140.212     396.254    -408.057
  O      141.530     396.585    -407.637
  C      139.569     397.427    -408.807
  O      139.529     398.618    -408.002
  C      140.330     397.816    -410.061
  O      140.119     396.872    -411.106
  C      139.770     399.208    -410.324
  O      138.512     399.135    -411.015
  C      139.560     399.753    -408.891
  N      140.575     400.712    -408.484
  C      140.701     401.852    -409.293
  O      139.994     401.985    -410.293
  N      141.625     402.806    -408.940
  C      142.369     402.636    -407.888
  N      143.261     403.617    -407.584
  C      142.282     401.439    -407.020
  C      141.382     400.527    -407.381
  O      142.423     394.203    -408.258
  O      143.968     396.040    -407.369
  H      137.913     398.629    -410.432
  H      144.357     395.871    -408.250
  H      142.921     401.346    -406.154
  H      141.253     399.613    -406.800
  H      138.581     400.239    -408.810
  H      140.445     399.812    -410.950
  H      141.401     397.886    -409.842
  H      138.541     397.137    -409.070
  H      143.315     404.417    -408.202
  H      139.604     395.993    -407.182
  H      143.852     403.594    -406.763
  H      140.258     395.355    -408.688
  P      141.357     395.949    -411.524
  C      141.618     396.936    -413.915
  O      142.201     396.731    -412.638
  O      140.650     394.769    -412.364
  O      142.153     395.398    -410.386
  H      141.131     393.934    -412.221
  H      142.156     397.723    -414.434
  H      140.566     397.216    -413.842
  H      141.705     396.011    -414.503
  H      142.377     395.619    -403.807
  H      141.768     396.781    -404.961
  H      143.482     396.456    -404.870

 3  4  5  6  7  8  9  10  11  12  13  23  27  28  29  30  32 0
 6-311+G(2d,p)
 ****
 34  35 0
 6-311+G(2d,p)
 ****
 1  2  14  15  16  17  18  19  20  21  22  24  25  26 0
 3-21G
 ****
 31  33  36  37  38  39  40  41  42  43  44  45  46 0
 3-21G
 ****


