%nproc=1
%NoSave
%Mem=1900MB
#P OB98/GEN NMR

erre ene a

0 1
  C      -19.531     304.081    -256.685
  O      -19.501     305.332    -257.339
  H      -19.795     303.307    -257.414
  H      -20.287     304.096    -255.897
  H      -18.552     303.839    -256.258
  P      -18.832     306.559    -256.546
  C      -17.583     307.454    -258.637
  O      -18.543     307.718    -257.626
  C      -17.474     308.642    -259.591
  O      -18.637     308.667    -260.458
  C      -17.406     310.005    -258.874
  O      -16.491     310.860    -259.581
  C      -18.817     310.555    -259.016
  O      -18.865     311.982    -258.950
  C      -19.229     309.976    -260.371
  N      -23.138     311.199    -263.312
  C      -21.775     311.339    -263.529
  N      -21.405     311.901    -264.707
  N      -20.865     310.961    -262.668
  C      -21.390     310.392    -261.551
  C      -22.714     310.204    -261.219
  C      -23.707     310.650    -262.167
  O      -24.926     310.578    -262.025
  N      -22.836     309.619    -259.978
  C      -21.592     309.453    -259.568
  N      -20.676     309.903    -260.493
  O      -17.374     306.009    -256.181
  O      -19.570     307.006    -255.324
  H      -18.215     312.324    -259.600
  H      -17.282     305.933    -255.216
  H      -23.797     311.524    -264.009
  H      -21.293     309.031    -258.615
  H      -18.862     310.577    -261.207
  H      -19.450     310.155    -258.211
  H      -22.043     312.160    -265.430
  H      -17.099     309.930    -257.829
  H      -20.409     311.970    -264.900
  H      -16.593     308.499    -260.236
  H      -17.905     306.566    -259.198
  H      -16.611     307.261    -258.170
  P      -15.151     311.292    -258.803
  C      -13.756     311.189    -260.986
  O      -14.147     311.967    -259.861
  O      -14.460     309.893    -258.457
  O      -15.412     312.093    -257.566
  H      -14.534     309.702    -257.501
  H      -13.092     311.760    -261.601
  H      -14.623     310.920    -261.552
  H      -13.259     310.303    -260.651

 6  7  8  9  10  11  12  13  14  15  26  29  33  34 0
 6-311+G(2d,p)
 ****
 36  38  39  40  41 0
 6-311+G(2d,p)
 ****
 1  2  3  4  5  16  17  18  19  20  21  22  23  24  25 0
 3-21G
 ****
 27  28  30  31  32  35  37  42  43  44  45  46  47 0
 3-21G
 ****
 48  49 0
 3-21G
 ****


