%nproc=1
%NoSave
%Mem=1900MB
#P OB98/GEN NMR

erre ene a

0 1
  C      -86.372     202.495     371.949
  O      -86.774     202.874     370.649
  H      -87.259     202.198     372.516
  H      -85.892     203.331     372.463
  H      -85.688     201.643     371.903
  P      -85.665     203.420     369.629
  C      -87.150     205.177     368.458
  O      -86.449     203.944     368.330
  C      -88.640     204.915     368.702
  O      -88.869     204.973     370.133
  C      -89.540     205.960     368.026
  O      -90.549     205.378     367.201
  C      -89.996     206.833     369.188
  O      -91.232     207.487     368.986
  C      -89.968     205.869     370.379
  N      -89.816     206.529     371.674
  C      -90.816     206.320     372.620
  O      -91.804     205.606     372.458
  N      -90.645     206.973     373.814
  C      -89.608     207.792     374.142
  O      -89.507     208.345     375.230
  C      -88.595     207.991     373.094
  C      -88.742     207.361     371.926
  O      -84.536     202.488     369.344
  O      -85.149     204.775     370.307
  H      -91.109     208.141     368.268
  H      -84.285     204.619     370.733
  H      -91.356     206.819     374.511
  H      -87.760     208.645     373.315
  H      -88.013     207.485     371.130
  H      -90.887     205.278     370.415
  H      -89.242     207.615     369.346
  H      -88.966     206.574     367.324
  H      -88.879     203.897     368.370
  H      -87.012     205.740     367.531
  H      -86.734     205.753     369.291
  P      -90.871     205.831     365.704
  C      -93.488     205.830     365.886
  O      -92.315     205.267     365.310
  O      -89.773     205.622     364.718
  O      -91.107     207.421     365.842
  H      -90.793     207.824     365.004
  H      -94.351     205.325     365.504
  H      -93.544     206.869     365.638
  H      -93.452     205.719     366.950

 6  7  8  9  10  11  12  13  14  15  16  26  31  32  33  34  35 0
 6-311+G(2d,p)
 ****
 36  37 0
 6-311+G(2d,p)
 ****
 1  2  3  4  5  17  18  19  20  21  22  23  24  25 0
 3-21G
 ****
 27  28  29  30  38  39  40  41  42  43  44  45 0
 3-21G
 ****


