%nproc=1
%NoSave
%Mem=1900MB
#P OB98/GEN NMR

erre ene a

0 1
  C     -202.984    -828.647    -341.290
  O     -203.140    -827.977    -342.529
  P     -202.837    -826.397    -342.547
  C     -201.241    -826.402    -344.610
  O     -201.388    -826.228    -343.214
  C     -199.916    -827.115    -344.914
  O     -199.869    -828.392    -344.234
  C     -199.675    -827.406    -346.390
  O     -199.176    -826.256    -347.048
  C     -198.683    -828.556    -346.318
  O     -197.342    -828.070    -346.087
  C     -199.195    -829.342    -345.096
  N     -199.517    -834.332    -345.874
  C     -198.406    -833.522    -345.710
  N     -197.211    -834.147    -345.710
  N     -198.459    -832.229    -345.555
  C     -199.720    -831.745    -345.596
  C     -200.906    -832.431    -345.767
  C     -200.832    -833.869    -345.880
  O     -201.793    -834.635    -345.924
  N     -201.982    -831.585    -345.767
  C     -201.463    -830.390    -345.565
  N     -200.094    -830.434    -345.436
  O     -202.595    -826.052    -341.006
  O     -203.903    -825.549    -343.171
  H     -197.002    -827.671    -346.904
  H     -203.407    -825.674    -340.608
  H     -199.416    -835.324    -345.965
  H     -202.022    -829.474    -345.486
  H     -198.373    -829.775    -344.514
  H     -198.648    -829.128    -347.239
  H     -197.085    -835.142    -345.844
  H     -200.600    -827.748    -346.863
  H     -196.383    -833.580    -345.590
  H     -199.103    -826.495    -344.502
  H     -201.235    -825.417    -345.101
  H     -202.083    -826.984    -345.002
  P     -200.133    -825.520    -348.102
  C     -199.289    -823.081    -347.773
  O     -200.341    -824.016    -347.590
  O     -201.560    -826.207    -347.841
  O     -199.718    -825.660    -349.525
  H     -202.035    -826.300    -348.691
  H     -199.718    -822.092    -347.877
  H     -198.699    -823.318    -348.661
  H     -198.637    -823.102    -346.891
  H     -203.214    -829.685    -341.414
  H     -203.646    -828.219    -340.567
  H     -201.974    -828.544    -340.953

 3  4  5  6  7  8  9  10  11  12  23  26  30  31 0
 6-311+G(2d,p)
 ****
 33  35  36  37  38 0
 6-311+G(2d,p)
 ****
 1  2  13  14  15  16  17  18  19  20  21  22  24  25 0
 3-21G
 ****
 27  28  29  32  34  39  40  41  42  43  44  45  46  47  48  49 0
 3-21G
 ****


