%nproc=1
%NoSave
%Mem=1900MB
#P OB98/GEN NMR

erre ene a

0 1
  C      150.148     446.714     243.129
  O      149.756     445.465     243.658
  H      149.535     447.491     243.579
  H      150.008     446.738     242.045
  H      151.201     446.921     243.370
  P      150.471     444.139     243.106
  C      151.359     443.650     245.483
  O      150.642     443.145     244.356
  C      150.765     443.092     246.784
  O      149.554     443.830     247.073
  C      150.402     441.599     246.666
  O      150.972     440.798     247.698
  C      148.876     441.619     246.549
  O      148.238     440.448     246.995
  C      148.488     442.894     247.310
  N      147.203     443.457     246.903
  C      146.083     443.059     247.617
  O      146.083     442.290     248.582
  N      144.883     443.592     247.191
  C      144.722     444.465     246.152
  O      143.628     444.910     245.818
  C      145.946     444.828     245.422
  C      147.114     444.313     245.827
  O      151.715     444.355     242.311
  O      149.336     443.422     242.235
  H      148.494     439.719     246.394
  H      149.501     443.576     241.285
  H      144.061     443.320     247.707
  H      145.846     445.500     244.585
  H      148.036     444.562     245.309
  H      148.440     442.690     248.387
  H      148.621     441.747     245.483
  H      150.827     441.163     245.754
  H      151.472     443.271     247.598
  H      151.279     444.748     245.472
  H      152.417     443.373     245.406
  P      150.977     439.204     247.720
  C      153.580     438.861     247.656
  O      152.348     438.713     248.373
  O      150.545     438.548     246.455
  O      149.877     438.853     248.845
  H      149.450     438.007     248.572
  H      154.385     438.479     248.248
  H      153.750     439.897     247.449
  H      153.525     438.318     246.736

 6  7  8  9  10  11  12  13  14  15  16  26  31  32  33  34  35 0
 6-311+G(2d,p)
 ****
 36  37 0
 6-311+G(2d,p)
 ****
 1  2  3  4  5  17  18  19  20  21  22  23  24  25 0
 3-21G
 ****
 27  28  29  30  38  39  40  41  42  43  44  45 0
 3-21G
 ****


