%nproc=1
%NoSave
%Mem=1900MB
#P OB98/GEN NMR

erre ene a

0 1
  C      -84.237    -123.501     210.911
  O      -85.347    -122.790     210.402
  H      -83.741    -122.886     211.666
  H      -83.524    -123.720     210.112
  H      -84.570    -124.432     211.377
  P      -86.157    -123.475     209.201
  C      -88.427    -122.602     210.117
  O      -87.518    -122.647     209.025
  C      -89.007    -121.196     210.241
  O      -89.631    -120.812     208.992
  C      -90.098    -121.064     211.295
  O      -89.579    -120.965     212.611
  C      -90.779    -119.785     210.845
  O      -90.109    -118.619     211.347
  C      -90.673    -119.869     209.311
  N      -91.950    -120.235     208.700
  C      -92.885    -119.207     208.598
  O      -92.676    -118.060     208.989
  N      -94.096    -119.557     208.067
  C      -94.471    -120.809     207.683
  O      -95.595    -121.063     207.265
  C      -93.447    -121.856     207.829
  C      -92.252    -121.527     208.327
  O      -86.636    -124.866     209.830
  O      -85.375    -123.668     207.943
  H      -86.109    -125.596     209.455
  H      -90.672    -117.859     211.099
  H      -94.787    -118.825     207.983
  H      -93.712    -122.864     207.535
  H      -91.484    -122.284     208.456
  H      -90.361    -118.902     208.894
  H      -91.805    -119.744     211.200
  H      -90.808    -121.895     211.212
  H      -88.185    -120.496     210.444
  H      -87.900    -122.851     211.045
  H      -89.218    -123.339     209.953
  P      -89.893    -122.166     213.629
  C      -87.759    -121.578     215.056
  O      -89.163    -121.774     215.003
  O      -88.988    -123.326     213.002
  O      -91.345    -122.482     213.734
  H      -88.221    -122.966     212.520
  H      -87.472    -121.325     216.055
  H      -87.485    -120.784     214.394
  H      -87.262    -122.478     214.759

 6  7  8  9  10  11  12  13  14  15  16  27  31  32  33  34  35 0
 6-311+G(2d,p)
 ****
 36  37 0
 6-311+G(2d,p)
 ****
 1  2  3  4  5  17  18  19  20  21  22  23  24  25 0
 3-21G
 ****
 26  28  29  30  38  39  40  41  42  43  44  45 0
 3-21G
 ****


