%nproc=1
%NoSave
%Mem=1900MB
#P OB98/GEN NMR

erre ene a

0 1
  C      281.528     -31.042     -22.955
  O      281.074     -32.381     -23.019
  H      280.662     -30.380     -22.879
  H      282.087     -30.793     -23.857
  H      282.163     -30.897     -22.075
  P      282.209     -33.517     -23.091
  C      283.793     -34.395     -24.975
  O      282.743     -33.504     -24.605
  C      284.156     -34.207     -26.448
  O      282.933     -34.268     -27.241
  C      284.814     -32.845     -26.756
  O      285.704     -33.010     -27.875
  C      283.619     -32.009     -27.184
  O      284.048     -30.850     -27.865
  C      282.868     -33.044     -28.008
  N      279.836     -29.828     -30.562
  C      281.177     -30.014     -30.580
  N      281.910     -30.902     -29.874
  C      281.111     -31.662     -29.108
  C      279.734     -31.595     -28.989
  C      279.086     -30.611     -29.762
  N      277.725     -30.412     -29.731
  N      279.278     -32.538     -28.081
  C      280.357     -33.163     -27.672
  N      281.492     -32.679     -28.267
  O      281.369     -34.879     -22.998
  O      283.270     -33.441     -22.050
  H      283.308     -30.420     -28.332
  H      281.314     -35.171     -22.069
  H      281.733     -29.355     -31.248
  H      280.389     -33.970     -26.941
  H      283.342     -33.241     -28.985
  H      283.033     -31.687     -26.321
  H      285.362     -32.430     -25.904
  H      284.792     -35.043     -26.775
  H      283.451     -35.422     -24.797
  H      284.671     -34.193     -24.349
  H      277.341     -29.666     -30.293
  H      277.147     -30.959     -29.104
  P      287.181     -32.372     -27.799
  C      288.386     -30.241     -28.725
  O      287.163     -30.859     -28.347
  O      287.946     -33.147     -28.975
  O      287.902     -32.565     -26.499
  H      288.818     -33.445     -28.659
  H      288.192     -29.244     -29.063
  H      288.841     -30.803     -29.514
  H      289.045     -30.210     -27.883

 6  7  8  9  10  11  12  13  14  15  25  28  32  33  34  35 0
 6-311+G(2d,p)
 ****
 36  37  40 0
 6-311+G(2d,p)
 ****
 1  2  3  4  5  16  17  18  19  20  21  22  23  24 0
 3-21G
 ****
 26  27  29  30  31  38  39 41  42  43  44  45  46  47  48 0
 3-21G
 ****


