%nproc=1
%NoSave
%Mem=1900MB
#P OB98/GEN NMR

erre ene a

0 1
  C        5.918    -121.769     170.545
  O        6.409    -122.838     171.326
  P        6.806    -122.629     172.863
  C        9.244    -121.883     172.493
  O        7.938    -121.487     172.899
  C       10.276    -121.467     173.548
  O       11.575    -122.028     173.176
  C       10.437    -119.937     173.661
  O       10.302    -119.426     174.988
  C       11.783    -119.690     172.998
  O       12.388    -118.466     173.367
  C       12.542    -120.973     173.351
  N       13.731    -121.165     172.527
  C       14.875    -120.457     172.886
  O       14.947    -119.697     173.847
  N       15.953    -120.596     172.055
  C       15.967    -121.262     170.866
  O       16.937    -121.263     170.123
  C       14.718    -121.959     170.519
  C       13.681    -121.902     171.359
  O        7.168    -123.873     173.602
  O        5.538    -121.858     173.465
  H       13.216    -118.376     172.859
  H        5.340    -121.003     173.044
  H       16.785    -120.086     172.304
  H       14.695    -122.488     169.578
  H       12.747    -122.406     171.132
  H       12.844    -120.984     174.401
  H       11.619    -119.652     171.914
  H        9.653    -119.417     173.095
  H        9.972    -121.903     174.502
  H        9.482    -121.392     171.547
  H        9.268    -122.963     172.317
  P        9.386    -118.180     175.403
  C       11.342    -116.482     175.194
  O       10.040    -116.853     174.795
  O        9.036    -118.104     176.854
  O        8.066    -118.375     174.517
  H        7.300    -117.991     174.983
  H       11.435    -115.395     175.124
  H       12.070    -116.938     174.515
  H       11.554    -116.789     176.221
  H        5.714    -122.116     169.554
  H        6.650    -120.990     170.507
  H        5.018    -121.391     170.983

 3  4  5  6  7  8  9  10  11  12  13  23  28  29  30  31  32 0
 6-311+G(2d,p)
 ****
 33  34 0
 6-311+G(2d,p)
 ****
 1  2  14  15  16  17  18  19  20  21  22  24  25  26  27 0
 3-21G
 ****
 35  36  37  38  39  40  41  42  43  44  45 0
 3-21G
 ****


