%nproc=1
%NoSave
%Mem=1900MB
#P OB98/GEN NMR

erre ene a

0 1
  C      438.943    -157.073    -431.376
  O      439.368    -157.987    -432.365
  H      439.628    -156.223    -431.364
  H      438.967    -157.558    -430.398
  H      437.932    -156.709    -431.585
  P      438.315    -159.101    -432.837
  C      436.619    -157.398    -433.816
  O      437.507    -158.473    -434.077
  C      435.176    -157.902    -433.745
  O      434.355    -156.871    -433.117
  C      434.556    -158.224    -435.116
  O      433.700    -159.365    -434.977
  C      433.686    -157.010    -435.385
  O      432.633    -157.290    -436.300
  C      433.212    -156.682    -433.971
  N      429.335    -153.997    -432.255
  C      429.689    -155.310    -432.023
  N      428.853    -156.048    -431.263
  N      430.776    -155.860    -432.501
  C      431.537    -155.005    -433.227
  C      431.294    -153.689    -433.533
  C      430.080    -153.097    -433.013
  O      429.701    -151.944    -433.200
  N      432.277    -153.187    -434.348
  C      433.096    -154.206    -434.552
  N      432.687    -155.331    -433.892
  O      437.243    -159.095    -431.647
  O      438.882    -160.461    -433.067
  H      433.019    -157.732    -437.081
  H      437.463    -159.792    -431.002
  H      428.480    -153.626    -431.879
  H      433.977    -154.185    -435.176
  H      432.414    -157.356    -433.630
  H      434.296    -156.196    -435.795
  H      428.013    -155.686    -430.836
  H      435.291    -158.407    -435.903
  H      429.119    -157.002    -431.054
  H      435.146    -158.779    -433.088
  H      436.700    -156.661    -434.622
  H      436.902    -156.917    -432.873
  P      434.267    -160.794    -435.436
  C      434.687    -161.630    -433.010
  O      434.030    -161.847    -434.249
  O      435.852    -160.573    -435.422
  O      433.790    -161.230    -436.781
  H      436.265    -161.093    -436.133
  H      434.429    -162.413    -432.328
  H      434.382    -160.688    -432.604
  H      435.746    -161.626    -433.164

 6  7  8  9  10  11  12  13  14  15  26  29  33  34 0
 6-311+G(2d,p)
 ****
 36  38  39  40  41 0
 6-311+G(2d,p)
 ****
 1  2  3  4  5  16  17  18  19  20  21  22  23  24  25 0
 3-21G
 ****
 27  28  30  31  32  35  37  42  43  44  45  46  47 0
 3-21G
 ****
 48  49 0
 3-21G
 ****


