%nproc=1
%NoSave
%Mem=1900MB
#P OB98/GEN NMR

erre ene a

0 1
  C       22.060     -22.864     -65.339
  O       23.434     -22.741     -65.647
  P       24.378     -24.028     -65.743
  C       25.641     -23.238     -63.658
  O       24.969     -24.323     -64.282
  C       25.944     -23.541     -62.191
  O       24.705     -23.544     -61.434
  C       26.641     -24.889     -61.959
  O       27.591     -24.700     -60.905
  C       25.506     -25.785     -61.501
  O       25.968     -26.910     -60.765
  C       24.657     -24.787     -60.706
  N       23.289     -25.243     -60.522
  C       22.832     -25.361     -59.208
  O       23.613     -25.212     -58.266
  N       21.509     -25.660     -58.997
  C       20.763     -25.998     -60.004
  N       19.443     -26.220     -59.762
  C       21.283     -26.126     -61.381
  C       22.526     -25.696     -61.574
  O       25.405     -23.980     -66.827
  O       23.363     -25.246     -65.973
  H       23.641     -25.749     -66.763
  H       26.549     -27.449     -61.343
  H       20.658     -26.531     -62.162
  H       22.989     -25.722     -62.554
  H       25.104     -24.601     -59.720
  H       24.951     -26.152     -62.372
  H       27.156     -25.258     -62.851
  H       26.563     -22.726     -61.796
  H       19.115     -26.083     -58.814
  H       24.994     -22.359     -63.713
  H       18.741     -26.172     -60.500
  H       26.563     -23.008     -64.203
  P       28.971     -25.519     -60.968
  C       28.012     -27.293     -59.334
  O       28.661     -27.038     -60.563
  O       29.730     -24.973     -59.661
  O       29.823     -25.300     -62.176
  H       30.691     -25.072     -59.788
  H       27.944     -28.375     -59.193
  H       27.001     -26.879     -59.346
  H       28.580     -26.866     -58.503
  H       21.610     -21.893     -65.323
  H       21.949     -23.324     -64.379
  H       21.581     -23.468     -66.081

 3  4  5  6  7  8  9  10  11  12  13  24  27  28  29  30  32 0
 6-311+G(2d,p)
 ****
 34  35 0
 6-311+G(2d,p)
 ****
 1  2  14  15  16  17  18  19  20  21  22  23  25  26 0
 3-21G
 ****
 31  33  36  37  38  39  40  41  42  43  44  45  46 0
 3-21G
 ****


