%nproc=1
%NoSave
%Mem=1900MB
#P OB98/GEN NMR

erre ene a

0 1
  C      517.793      56.294     267.809
  O      516.708      55.603     268.445
  P      515.231      56.211     268.594
  C      514.506      55.489     266.208
  O      514.689      56.570     267.123
  C      513.087      55.505     265.634
  O      512.884      56.699     264.832
  C      512.766      54.352     264.681
  O      512.590      53.126     265.360
  C      511.503      54.888     263.999
  O      510.333      54.612     264.776
  C      511.765      56.406     263.947
  N      512.027      56.895     262.601
  C      511.042      57.706     262.024
  O      509.975      57.905     262.613
  N      511.285      58.243     260.788
  C      512.364      57.933     260.143
  N      512.554      58.518     258.926
  C      513.364      56.974     260.657
  C      513.136      56.498     261.877
  O      515.133      57.345     269.557
  O      514.301      54.987     269.048
  H      513.533      55.324     269.545
  H      509.584      55.060     264.328
  H      514.229      56.706     260.067
  H      513.833      55.807     262.343
  H      510.914      56.948     264.374
  H      511.350      54.428     263.011
  H      513.571      54.260     263.938
  H      512.379      55.516     266.473
  H      511.861      59.177     258.606
  H      514.667      54.553     266.745
  H      513.368      58.351     258.349
  H      515.260      55.566     265.410
  P      513.303      51.834     264.727
  C      514.989      51.380     266.651
  O      514.797      51.770     265.308
  O      513.505      52.232     263.187
  O      512.522      50.565     264.859
  H      513.341      51.452     262.620
  H      515.977      50.927     266.743
  H      514.230      50.659     266.979
  H      514.940      52.266     267.290
  H      518.670      55.682     267.836
  H      517.982      57.212     268.325
  H      517.535      56.503     266.792

 3  4  5  6  7  8  9  10  11  12  13  24  27  28  29  30  32 0
 6-311+G(2d,p)
 ****
 34  35 0
 6-311+G(2d,p)
 ****
 1  2  14  15  16  17  18  19  20  21  22  23  25  26 0
 3-21G
 ****
 31  33  36  37  38  39  40  41  42  43  44  45  46 0
 3-21G
 ****


