%nproc=1
%NoSave
%Mem=1900MB
#P OB98/GEN NMR

erre ene a

0 1
  C     -115.217     440.694     -66.633
  O     -115.844     439.425     -66.654
  P     -116.604     438.995     -68.006
  C     -118.936     439.484     -69.038
  O     -117.990     439.799     -68.027
  C     -119.819     440.689     -69.373
  O     -118.984     441.782     -69.813
  C     -120.861     440.422     -70.461
  O     -122.055     441.134     -70.123
  C     -120.250     441.049     -71.700
  O     -121.238     441.404     -72.660
  C     -119.490     442.238     -71.083
  N     -118.414     442.717     -71.950
  C     -118.781     443.177     -73.217
  O     -119.948     443.092     -73.588
  N     -117.805     443.662     -74.052
  C     -116.559     443.602     -73.688
  N     -115.631     444.108     -74.552
  C     -116.116     443.010     -72.413
  C     -117.093     442.609     -71.590
  O     -117.051     437.489     -67.701
  O     -115.771     439.099     -69.244
  H     -120.784     441.787     -73.441
  H     -117.058     436.957     -68.517
  H     -115.068     442.943     -72.173
  H     -116.866     442.185     -70.618
  H     -120.175     443.072     -70.893
  H     -119.547     440.344     -72.168
  H     -121.089     439.354     -70.580
  H     -120.315     441.010     -68.446
  H     -115.957     444.487     -75.423
  H     -119.581     438.676     -68.692
  H     -114.640     444.094     -74.352
  H     -118.406     439.135     -69.934
  P     -123.451     440.367     -70.261
  C     -124.651     439.671     -72.423
  O     -123.965     440.707     -71.744
  O     -124.407     441.280     -69.359
  O     -123.519     438.934     -69.832
  H     -125.301     440.883     -69.315
  H     -125.065     440.080     -73.354
  H     -125.463     439.283     -71.816
  H     -123.949     438.866     -72.674
  H     -114.754     440.848     -65.680
  H     -115.949     441.456     -66.801
  H     -114.474     440.737     -67.402

 3  4  5  6  7  8  9  10  11  12  13  21  23  27  28  29  30  32 0
 6-311+G(2d,p)
 ****
 34  35 0
 6-311+G(2d,p)
 ****
 1  2  14  15  16  17  18  19  20  22  24  25  26 0
 3-21G
 ****
 31  33  36  37  38  39  40  41  42  43  44  45  46 0
 3-21G
 ****


