%nproc=1
%NoSave
%Mem=1900MB
#P OB98/GEN NMR

erre ene a

0 1
  C      934.167     331.406     471.815
  O      934.515     330.938     473.106
  H      933.676     330.611     471.244
  H      933.483     332.245     471.921
  H      935.056     331.749     471.284
  P      935.445     329.630     473.164
  C      933.498     328.022     472.579
  O      934.482     328.406     473.527
  C      932.910     326.658     472.936
  O      933.932     325.651     472.897
  C      932.312     326.577     474.334
  O      931.016     327.178     474.395
  C      932.258     325.072     474.530
  O      931.090     324.547     473.863
  C      933.531     324.596     473.827
  N      935.649     321.150     476.985
  C      934.528     321.108     476.215
  N      934.024     322.062     475.418
  C      934.805     323.153     475.420
  C      935.965     323.349     476.152
  C      936.392     322.286     476.969
  N      937.516     322.333     477.767
  N      936.502     324.589     475.901
  C      935.679     325.147     475.039
  N      934.629     324.327     474.720
  O      936.302     329.845     474.497
  O      936.323     329.421     471.975
  H      931.032     323.603     474.100
  H      937.203     329.488     474.361
  H      933.972     320.179     476.256
  H      935.806     326.141     474.611
  H      933.348     323.704     473.212
  H      932.189     324.771     475.582
  H      932.987     327.024     475.091
  H      932.160     326.410     472.170
  H      933.955     327.967     471.583
  H      937.868     321.479     478.169
  H      938.076     323.181     477.733
  H      932.712     328.791     472.551
  P      930.696     328.163     475.617
  C      930.338     326.198     477.283
  O      929.767     327.323     476.625
  O      929.704     329.225     474.975
  O      931.892     328.823     476.225
  H      929.743     330.078     475.474
  H      929.604     325.744     477.916
  H      931.171     326.516     477.874
  H      930.668     325.488     476.554

 6  7  8  9  10  11  12  13  14  15  25  28  32  33  34  35 0
 6-311+G(2d,p)
 ****
 36  39  40 0
 6-311+G(2d,p)
 ****
 1  2  3  4  5  16  17  18  19  20  21  22  23  24 0
 3-21G
 ****
 26  27  29  30  31  37  38  41  42  43  44  45  46  47  48 0
 3-21G
 ****


