%nproc=1
%NoSave
%Mem=1900MB
#P OB98/GEN NMR

erre ene a

0 1
  C       -8.054     287.740      18.904
  O       -6.944     287.078      19.484
  P       -5.561     287.842      19.717
  C       -4.335     285.985      18.324
  O       -4.523     287.354      18.609
  C       -4.104     285.820      16.816
  O       -5.173     286.445      16.078
  C       -2.789     286.459      16.377
  O       -1.749     285.495      16.351
  C       -3.133     287.015      15.008
  O       -3.063     285.978      14.012
  C       -4.600     287.463      15.214
  N       -4.845     288.779      15.833
  C       -4.182     289.902      15.347
  O       -3.410     289.880      14.395
  N       -4.423     291.073      16.022
  C       -5.276     291.224      17.078
  O       -5.299     292.202      17.815
  C       -6.139     290.074      17.362
  C       -5.873     288.919      16.755
  O       -5.005     287.181      21.063
  O       -5.659     289.330      19.822
  H       -2.130     285.903      13.742
  H       -5.199     287.750      21.831
  H       -3.840     291.862      15.764
  H       -6.925     290.191      18.094
  H       -6.476     288.041      16.979
  H       -5.150     287.444      14.267
  H       -2.420     287.779      14.702
  H       -2.533     287.294      17.040
  H       -4.107     284.750      16.573
  H       -5.213     285.412      18.642
  H       -3.477     285.599      18.883
  P       -0.439     285.722      17.240
  C        0.747     286.475      15.097
  O        0.435     286.799      16.437
  O        0.287     284.482      17.647
  O       -0.992     286.531      18.509
  H       -1.145     285.914      19.254
  H        1.181     287.354      14.614
  H       -0.154     286.178      14.552
  H        1.479     285.662      15.075
  H       -8.878     287.061      18.834
  H       -7.792     288.085      17.925
  H       -8.330     288.574      19.514

 3  4  5  6  7  8  9  10  11  12  13  23  28  29  30  31  32 0
 6-311+G(2d,p)
 ****
 33  34 0
 6-311+G(2d,p)
 ****
 1  2  14  15  16  17  18  19  20  21  22  24  25  26  27 0
 3-21G
 ****
 35  36  37  38  39  40  41  42  43  44  45 0
 3-21G
 ****


