%nproc=1
%NoSave
%Mem=1900MB
#P OB98/GEN NMR

erre ene a

0 1
  C      121.958      99.225     218.634
  O      120.834      99.585     217.856
  H      122.090      98.141     218.579
  H      121.795      99.511     219.678
  H      122.858      99.714     218.250
  P      120.556     101.151     217.658
  C      119.728     103.078     219.244
  O      119.829     101.680     218.992
  C      118.395     103.389     219.921
  O      117.283     102.972     219.104
  C      118.182     102.647     221.231
  O      119.001     103.136     222.274
  C      116.696     102.893     221.449
  O      116.458     104.207     221.971
  C      116.155     102.773     220.003
  N      115.487     101.500     219.757
  C      114.097     101.564     219.590
  O      113.515     102.652     219.639
  N      113.402     100.396     219.399
  C      114.036      99.266     219.353
  N      113.289      98.145     219.171
  C      115.502      99.155     219.500
  C      116.156     100.298     219.703
  O      119.374     101.167     216.580
  O      121.752     101.968     217.277
  H      117.082     104.325     222.717
  H      118.610     100.620     216.832
  H      115.991      98.192     219.446
  H      117.231     100.308     219.820
  H      115.439     103.580     219.789
  H      116.263     102.184     222.158
  H      118.327     101.571     221.084
  H      118.330     104.479     220.059
  H      112.283      98.257     219.094
  H      119.834     103.652     218.315
  H      113.669      97.206     219.153
  H      120.559     103.358     219.899
  P      119.597     102.130     223.376
  C      118.611     100.278     224.874
  O      118.332     101.428     224.077
  O      120.574     102.743     224.329
  O      120.205     100.937     222.499
  H      119.558     100.474     221.936
  H      117.699      99.900     225.286
  H      119.276     100.547     225.668
  H      119.067      99.525     224.266

 6  7  8  9  10  11  12  13  14  15  16  26  30  31  32  33  35 0
 6-311+G(2d,p)
 ****
 37  38 0
 6-311+G(2d,p)
 ****
 1  2  3  4  5  17  18  19  20  21  22  23  24  25 0
 3-21G
 ****
 27  28  29  34  36  39  40  41  42  43  44  45  46 0
 3-21G
 ****


