%nproc=1
%NoSave
%Mem=1900MB
#P OB98/GEN NMR

erre ene a

0 1
  C      156.387    -443.239      50.007
  O      155.326    -443.207      49.048
  P      154.683    -444.602      48.600
  C      156.745    -445.154      47.108
  O      155.871    -445.591      48.123
  C      157.464    -446.325      46.420
  O      156.511    -447.151      45.692
  C      158.537    -445.903      45.404
  O      159.545    -446.898      45.366
  C      157.768    -445.933      44.092
  O      158.650    -445.983      42.964
  C      156.901    -447.179      44.312
  N      153.360    -450.177      42.302
  C      154.447    -450.484      43.096
  N      154.613    -451.792      43.429
  N      155.320    -449.606      43.523
  C      155.010    -448.335      43.130
  C      153.984    -447.897      42.351
  C      153.047    -448.883      41.861
  O      152.086    -448.674      41.146
  N      154.023    -446.540      42.144
  C      155.093    -446.154      42.833
  N      155.716    -447.189      43.456
  O      153.938    -444.225      47.210
  O      153.714    -445.176      49.582
  H      158.089    -445.873      42.162
  H      152.985    -444.217      47.337
  H      152.747    -450.900      41.986
  H      155.478    -445.138      42.877
  H      157.456    -448.099      44.133
  H      157.144    -445.032      43.991
  H      153.948    -452.522      43.176
  H      158.991    -444.925      45.596
  H      155.385    -452.034      44.038
  H      157.910    -446.961      47.204
  H      157.514    -444.461      47.532
  H      156.189    -444.544      46.382
  P      160.794    -446.696      46.347
  C      162.660    -446.192      44.601
  O      161.793    -445.684      45.617
  O      161.576    -448.120      46.249
  O      160.437    -446.365      47.749
  H      162.096    -448.276      47.063
  H      162.265    -445.906      43.614
  H      162.762    -447.270      44.672
  H      163.648    -445.716      44.741
  H      156.715    -442.241      50.209
  H      157.203    -443.811      49.617
  H      156.036    -443.689      50.912

 3  4  5  6  7  8  9  10  11  12  23  26  30  31 0
 6-311+G(2d,p)
 ****
 33  35  36  37  38 0
 6-311+G(2d,p)
 ****
 1  2  13  14  15  16  17  18  19  20  21  22  24  25 0
 3-21G
 ****
 27  28  29  32  34  39  40  41  42  43  44  45  46  47  48  49 0
 3-21G
 ****


