%nproc=1
%NoSave
%Mem=1900MB
#P OB98/GEN NMR

erre ene a

0 1
  C     -476.638    -294.868      96.073
  O     -476.042    -296.148      95.938
  H     -477.441    -294.909      96.817
  H     -475.878    -294.160      96.408
  H     -477.038    -294.533      95.110
  P     -477.015    -297.339      95.470
  C     -477.979    -299.475      96.567
  O     -477.294    -298.250      96.767
  C     -478.516    -299.996      97.902
  O     -477.413    -300.606      98.620
  C     -479.131    -298.908      98.802
  O     -480.429    -299.310      99.267
  C     -478.190    -298.835      99.994
  O     -478.860    -298.549     101.214
  C     -477.551    -300.223      99.998
  N     -475.261    -300.547     104.544
  C     -476.477    -300.938     104.134
  N     -476.997    -300.912     102.888
  C     -476.090    -300.445     102.002
  C     -474.795    -300.029     102.272
  C     -474.384    -300.071     103.616
  N     -473.158    -299.624     104.051
  N     -474.164    -299.611     101.115
  C     -475.088    -299.728     100.170
  N     -476.266    -300.215     100.667
  O     -476.061    -298.253      94.562
  O     -478.225    -296.891      94.717
  H     -478.174    -298.432     101.903
  H     -476.422    -298.281      93.653
  H     -477.139    -301.319     104.912
  H     -474.957    -299.438      99.135
  H     -478.193    -300.965     100.492
  H     -477.440    -298.056      99.813
  H     -479.212    -297.941      98.297
  H     -479.253    -300.785      97.699
  H     -477.293    -300.217      96.146
  H     -472.996    -299.576     105.042
  H     -472.548    -299.168     103.376
  H     -478.803    -299.318      95.863
  P     -481.608    -298.225      99.106
  C     -483.356    -297.091     100.669
  O     -482.224    -297.946     100.571
  O     -482.756    -299.048      98.348
  O     -481.204    -297.007      98.340
  H     -483.001    -298.588      97.534
  H     -483.648    -297.002     101.694
  H     -484.164    -297.503     100.102
  H     -483.107    -296.124     100.284

 6  7  8  9  10  11  12  13  14  15  25  28  32  33  34  35 0
 6-311+G(2d,p)
 ****
 36  39  40 0
 6-311+G(2d,p)
 ****
 1  2  3  4  5  16  17  18  19  20  21  22  23  24 0
 3-21G
 ****
 26  27  29  30  31  37  38  41  42  43  44  45  46  47  48 0
 3-21G
 ****


