%nproc=1
%NoSave
%Mem=1900MB
#P OB98/GEN NMR

erre ene a

0 1
  C       71.992    -325.392      44.778
  O       70.983    -324.425      44.455
  P       70.796    -323.188      45.457
  C       72.909    -321.913      44.579
  O       72.263    -322.569      45.656
  C       73.522    -320.596      45.056
  O       74.599    -320.847      45.993
  C       74.138    -319.754      43.948
  O       73.135    -319.122      43.163
  C       75.015    -318.809      44.760
  O       74.226    -317.741      45.297
  C       75.510    -319.728      45.894
  N       76.885    -320.173      45.711
  C       77.837    -319.161      45.530
  O       77.543    -317.970      45.498
  N       79.124    -319.582      45.360
  C       79.551    -320.881      45.329
  O       80.730    -321.194      45.191
  C       78.503    -321.898      45.471
  C       77.238    -321.509      45.656
  O       70.495    -323.951      46.832
  O       69.739    -322.234      45.017
  H       70.988    -324.781      46.919
  H       73.492    -318.160      45.802
  H       79.828    -318.867      45.239
  H       78.797    -322.936      45.426
  H       76.448    -322.243      45.758
  H       75.450    -319.202      46.856
  H       75.806    -318.355      44.156
  H       74.764    -320.389      43.302
  H       72.740    -320.027      45.576
  H       72.185    -321.701      43.784
  H       73.670    -322.580      44.159
  P       73.477    -318.878      41.613
  C       73.595    -321.413      40.971
  O       74.266    -320.180      41.113
  O       74.614    -317.758      41.715
  O       72.292    -318.487      40.788
  H       75.268    -317.936      42.406
  H       74.177    -322.053      40.314
  H       72.597    -321.275      40.544
  H       73.505    -321.894      41.951
  H       72.006    -326.156      44.029
  H       71.775    -325.830      45.730
  H       72.947    -324.912      44.816

 3  4  5  6  7  8  9  10  11  12  13  24  28  29  30  31  32 0
 6-311+G(2d,p)
 ****
 33  34 0
 6-311+G(2d,p)
 ****
 1  2  14  15  16  17  18  19  20  21  22  23  25  26  27 0
 3-21G
 ****
 35  36  37  38  39  40  41  42  43  44  45 0
 3-21G
 ****


