%nproc=1
%NoSave
%Mem=1900MB
#P OB98/GEN NMR

erre ene a

0 1
  C     -182.800     185.927    1078.981
  O     -183.174     185.695    1080.341
  P     -182.565     184.551    1081.278
  C     -181.847     185.880    1083.432
  O     -181.469     185.210    1082.232
  C     -180.624     186.179    1084.307
  O     -179.941     184.923    1084.607
  C     -179.601     187.087    1083.599
  O     -179.047     188.093    1084.442
  C     -178.630     186.092    1082.978
  O     -177.377     186.653    1082.651
  C     -178.620     184.978    1084.024
  N     -174.974     182.109    1081.878
  C     -174.979     183.456    1082.156
  N     -173.879     184.149    1081.795
  N     -175.978     184.076    1082.712
  C     -177.052     183.293    1082.945
  C     -177.184     181.942    1082.710
  C     -176.045     181.246    1082.134
  O     -175.979     180.043    1081.891
  N     -178.406     181.477    1083.086
  C     -179.038     182.559    1083.539
  N     -178.243     183.678    1083.472
  O     -182.182     183.274    1080.590
  O     -183.771     184.211    1082.291
  H     -176.838     185.951    1082.226
  H     -183.695     183.261    1082.511
  H     -174.162     181.671    1081.475
  H     -180.050     182.571    1083.927
  H     -177.911     185.176    1084.828
  H     -179.082     185.731    1082.047
  H     -173.120     183.753    1081.258
  H     -180.081     187.667    1082.798
  H     -173.981     185.164    1081.793
  H     -180.964     186.618    1085.261
  H     -182.520     185.206    1083.951
  H     -182.405     186.791    1083.200
  P     -179.360     189.654    1084.474
  C     -180.320     189.398    1086.856
  O     -180.539     189.916    1085.533
  O     -180.079     189.960    1083.074
  O     -178.165     190.536    1084.651
  H     -179.547     190.603    1082.571
  H     -181.279     189.398    1087.379
  H     -179.612     190.029    1087.379
  H     -179.950     188.374    1086.794
  H     -183.361     186.751    1078.593
  H     -183.004     185.052    1078.401
  H     -181.755     186.152    1078.932

 3  4  5  6  7  8  9  10  11  12  23  26  30  31 0
 6-311+G(2d,p)
 ****
 33  35  36  37  38 0
 6-311+G(2d,p)
 ****
 1  2  13  14  15  16  17  18  19  20  21  22  24  25 0
 3-21G
 ****
 27  28  29  32  34  39  40  41  42  43  44  45  46  47  48  49 0
 3-21G
 ****


