%nproc=1
%NoSave
%Mem=1900MB
#P OB98/GEN NMR

erre ene a

0 1
  C     1215.259     448.129    1320.755
  O     1216.272     447.600    1319.894
  P     1217.493     446.810    1320.573
  C     1219.097     448.462    1319.329
  O     1218.830     447.113    1319.736
  C     1220.462     448.538    1318.617
  O     1221.527     448.149    1319.508
  C     1220.576     447.613    1317.451
  O     1219.881     448.139    1316.307
  C     1222.081     447.510    1317.256
  O     1222.572     448.517    1316.348
  C     1222.620     447.717    1318.666
  N     1223.241     446.508    1319.221
  C     1224.639     446.458    1319.128
  O     1225.280     447.367    1318.579
  N     1225.289     445.343    1319.623
  C     1224.605     444.373    1320.138
  N     1225.298     443.310    1320.628
  C     1223.127     444.390    1320.236
  C     1222.505     445.476    1319.766
  O     1217.191     445.276    1320.227
  O     1217.604     447.036    1322.064
  H     1221.993     448.457    1315.568
  H     1217.496     444.703    1320.942
  H     1222.590     443.548    1320.670
  H     1221.433     445.571    1319.786
  H     1223.357     448.523    1318.682
  H     1222.359     446.552    1316.805
  H     1220.134     446.627    1317.677
  H     1220.613     449.589    1318.299
  H     1226.314     443.324    1320.536
  H     1219.088     449.130    1320.201
  H     1224.870     442.484    1321.035
  H     1218.285     448.783    1318.678
  P     1218.321     447.812    1316.144
  C     1219.027     446.243    1314.252
  O     1218.147     447.311    1314.636
  O     1217.653     449.297    1316.067
  O     1217.685     446.987    1317.233
  H     1216.701     449.219    1316.057
  H     1218.669     445.858    1313.274
  H     1219.005     445.442    1314.961
  H     1220.041     446.637    1314.099
  H     1214.515     448.626    1320.168
  H     1215.699     448.826    1321.437
  H     1214.805     447.331    1321.304

 3  4  5  6  7  8  9  10  11  12  13  21  23  27  28  29  30  32 0
 6-311+G(2d,p)
 ****
 34  35 0
 6-311+G(2d,p)
 ****
 1  2  14  15  16  17  18  19  20  22  24  25  26 0
 3-21G
 ****
 31  33  36  37  38  39  40  41  42  43  44  45  46 0
 3-21G
 ****


