%nproc=1
%NoSave
%Mem=1900MB
#P OB98/GEN NMR

erre ene a

0 1
  C      -23.036      40.547     126.551
  O      -22.430      40.768     125.294
  H      -22.784      41.356     127.243
  H      -24.121      40.521     126.418
  H      -22.707      39.589     126.963
  P      -20.835      40.945     125.294
  C      -19.196      42.812     126.031
  O      -20.533      42.335     126.039
  C      -19.165      44.282     125.629
  O      -19.695      45.101     126.691
  C      -17.774      44.838     125.349
  O      -17.304      44.469     124.060
  C      -18.045      46.332     125.441
  O      -18.621      46.797     124.207
  C      -19.084      46.412     126.569
  N      -17.400      50.295     129.477
  C      -17.901      50.260     128.221
  N      -18.317      49.194     127.509
  C      -18.194      48.064     128.226
  C      -17.701      47.943     129.514
  C      -17.285      49.126     130.148
  N      -16.759      49.148     131.422
  N      -17.738      46.630     129.929
  C      -18.244      45.966     128.910
  N      -18.529      46.789     127.854
  O      -20.494      41.267     123.761
  O      -20.061      39.770     125.790
  H      -17.910      46.774     123.540
  H      -19.638      40.858     123.535
  H      -17.982      51.222     127.722
  H      -18.425      44.898     128.896
  H      -19.888      47.116     126.326
  H      -17.144      46.921     125.624
  H      -17.065      44.548     126.133
  H      -19.816      44.406     124.754
  H      -18.607      42.232     125.313
  H      -16.666      50.033     131.890
  H      -16.685      48.267     131.920
  H      -18.768      42.681     127.030
  P      -15.777      44.817     123.702
  C      -14.338      46.974     123.794
  O      -15.635      46.401     123.915
  O      -15.733      44.655     122.110
  O      -14.758      43.965     124.377
  H      -14.822      44.449     121.823
  H      -14.397      48.029     123.960
  H      -13.956      46.789     122.812
  H      -13.685      46.535     124.519

 6  7  8  9  10  11  12  13  14  15  25  28  32  33  34  35 0
 6-311+G(2d,p)
 ****
 36  39  40 0
 6-311+G(2d,p)
 ****
 1  2  3  4  5  16  17  18  19  20  21  22  23  24 0
 3-21G
 ****
 26  27  29  30  31  37  38  41  42  43  44  45  46  47  48 0
 3-21G
 ****


