%nproc=1
%NoSave
%Mem=1900MB
#P OB98/GEN NMR

erre ene a

0 1
  C     -359.762    -390.731    -314.511
  O     -360.357    -390.678    -313.228
  H     -359.074    -391.580    -314.543
  H     -359.202    -389.813    -314.707
  H     -360.532    -390.871    -315.274
  P     -361.383    -389.472    -312.963
  C     -359.758    -388.945    -311.013
  O     -361.113    -389.050    -311.438
  C     -359.688    -388.536    -309.544
  O     -360.300    -387.248    -309.351
  C     -360.404    -389.491    -308.592
  O     -359.561    -390.586    -308.266
  C     -360.625    -388.588    -307.388
  O     -359.418    -388.516    -306.608
  C     -360.910    -387.221    -308.037
  N     -364.922    -384.852    -305.886
  C     -363.704    -385.163    -305.399
  N     -362.707    -385.844    -306.004
  C     -363.065    -386.206    -307.253
  C     -364.277    -385.957    -307.879
  C     -365.233    -385.236    -307.143
  N     -366.480    -384.922    -307.641
  N     -364.281    -386.478    -309.157
  C     -363.074    -386.979    -309.316
  N     -362.311    -386.872    -308.182
  O     -362.802    -389.738    -313.333
  O     -360.678    -388.285    -313.778
  H     -359.120    -389.437    -306.463
  H     -359.712    -388.314    -313.653
  H     -363.499    -384.828    -304.388
  H     -362.697    -387.414    -310.236
  H     -360.441    -386.400    -307.477
  H     -361.410    -388.956    -306.728
  H     -361.371    -389.809    -308.986
  H     -358.629    -388.435    -309.272
  H     -359.228    -388.207    -311.630
  H     -367.165    -384.581    -306.985
  H     -366.751    -385.323    -308.529
  H     -359.289    -389.922    -311.163
  P     -359.953    -392.086    -308.685
  C     -359.611    -392.402    -306.157
  O     -359.497    -392.995    -307.443
  O     -359.449    -392.507    -310.024
  O     -361.546    -392.119    -308.587
  H     -361.896    -392.891    -309.073
  H     -359.280    -393.097    -305.413
  H     -360.633    -392.142    -305.973
  H     -359.006    -391.521    -306.116

 6  7  8  9  10  11  12  13  14  15  25  28  32  33  34  35 0
 6-311+G(2d,p)
 ****
 36  39  40 0
 6-311+G(2d,p)
 ****
 1  2  3  4  5  16  17  18  19  20  21  22  23  24 0
 3-21G
 ****
 26  27  29  30  31  37  38  41  42  43  44  45  46  47 0
 3-21G
 ****
 48 0
 3-21G
 ****


