%nproc=1
%NoSave
%Mem=1900MB
#P OB98/GEN NMR

erre ene a

0 1
  C      -69.436     -86.898    -226.535
  O      -69.334     -85.587    -227.074
  P      -70.679     -84.914    -227.648
  C      -72.391     -85.582    -229.489
  O      -71.117     -85.823    -228.895
  C      -72.328     -85.792    -230.999
  O      -71.528     -84.760    -231.611
  C      -71.702     -87.108    -231.428
  O      -72.624     -88.186    -231.370
  C      -71.339     -86.797    -232.871
  O      -72.513     -86.905    -233.704
  C      -70.886     -85.336    -232.781
  N      -66.432     -85.706    -235.272
  C      -67.701     -85.990    -235.649
  N      -68.833     -85.874    -234.923
  C      -68.556     -85.450    -233.676
  C      -67.311     -85.160    -233.142
  C      -66.213     -85.291    -234.001
  N      -64.922     -84.974    -233.629
  N      -67.428     -84.758    -231.830
  C      -68.719     -84.795    -231.576
  N      -69.447     -85.198    -232.662
  O      -70.142     -83.573    -228.338
  O      -71.734     -84.642    -226.630
  H      -72.329     -86.394    -234.518
  H      -70.863     -82.915    -228.397
  H      -67.822     -86.347    -236.666
  H      -69.175     -84.531    -230.631
  H      -71.203     -84.746    -233.648
  H      -70.593     -87.486    -233.281
  H      -70.789     -87.319    -230.859
  H      -73.351     -85.703    -231.394
  H      -72.689     -84.548    -229.281
  H      -64.220     -84.917    -234.352
  H      -64.788     -84.478    -232.757
  H      -73.127     -86.256    -229.038
  P      -72.067     -89.584    -230.807
  C      -69.866     -90.839    -231.398
  O      -70.949     -90.048    -231.855
  O      -73.285     -90.590    -231.069
  O      -71.659     -89.548    -229.371
  H      -73.250     -91.338    -230.441
  H      -69.391     -91.314    -232.260
  H      -70.213     -91.623    -230.715
  H      -69.131     -90.205    -230.890
  H      -68.474     -87.219    -226.193
  H      -69.788     -87.568    -227.291
  H      -70.123     -86.894    -225.715

 3  4  5  6  7  8  9  10  11  12  22  25  29  30  31  32 0
 6-311+G(2d,p)
 ****
 33  36  37 0
 6-311+G(2d,p)
 ****
 1  2  13  14  15  16  17  18  19  20  21  23  24  26 0
 3-21G
 ****
 27  28  34  35  38  39  40  41  42  43  44  45  46  47  48 0
 3-21G
 ****


