%nproc=1
%NoSave
%Mem=1900MB
#P OB98/GEN NMR

erre ene a

0 1
  C      267.531     198.957    -159.237
  O      266.149     199.165    -159.444
  H      267.698     198.760    -158.176
  H      268.093     199.850    -159.518
  H      267.885     198.098    -159.813
  P      265.607     199.311    -160.945
  C      263.328     198.897    -159.815
  O      264.030     199.579    -160.848
  C      261.823     199.070    -160.009
  O      261.456     198.720    -161.361
  C      260.980     198.173    -159.113
  O      260.951     198.645    -157.782
  C      259.649     198.211    -159.844
  O      258.909     199.391    -159.509
  C      260.093     198.245    -161.323
  N      259.971     196.936    -161.964
  C      258.760     196.671    -162.593
  O      257.828     197.470    -162.639
  N      258.628     195.415    -163.126
  C      259.513     194.387    -162.965
  O      259.247     193.222    -163.240
  C      260.798     194.744    -162.346
  C      260.961     195.979    -161.869
  O      266.010     198.225    -161.886
  O      266.181     200.732    -161.414
  H      266.958     200.589    -161.988
  H      258.061     199.321    -159.993
  H      257.736     195.200    -163.548
  H      261.554     193.972    -162.265
  H      261.889     196.257    -161.378
  H      259.488     198.967    -161.888
  H      259.031     197.349    -159.595
  H      261.372     197.148    -159.143
  H      261.575     200.127    -159.849
  H      263.622     199.323    -158.850
  H      263.605     197.837    -159.837
  P      261.847     197.944    -156.655
  C      262.601     200.289    -155.925
  O      262.129     199.016    -155.497
  O      263.057     197.231    -157.157
  O      260.841     196.917    -155.944
  H      261.267     196.039    -155.901
  H      262.753     200.918    -155.073
  H      261.879     200.737    -156.575
  H      263.526     200.169    -156.449

 6  7  8  9  10  11  12  13  14  15  16  27  31  32  33  34  35 0
 6-311+G(2d,p)
 ****
 36  37 0
 6-311+G(2d,p)
 ****
 1  2  3  4  5  17  18  19  20  21  22  23  24  25 0
 3-21G
 ****
 26  28  29  30  38  39  40  41  42  43  44  45 0
 3-21G
 ****


