%nproc=1
%NoSave
%Mem=1900MB
#P OB98/GEN NMR

erre ene a

0 1
  C      -27.476      17.228    -135.207
  O      -27.887      18.529    -135.580
  H      -28.157      16.819    -134.456
  H      -27.499      16.586    -136.091
  H      -26.456      17.251    -134.814
  P      -27.893      19.638    -134.421
  C      -30.293      18.819    -133.876
  O      -29.017      19.181    -133.372
  C      -31.378      19.668    -133.221
  O      -31.407      19.428    -131.799
  C      -31.192      21.173    -133.379
  O      -31.623      21.628    -134.652
  C      -32.093      21.688    -132.267
  O      -33.466      21.651    -132.699
  C      -31.861      20.650    -131.160
  N      -31.029      23.500    -126.995
  C      -32.151      23.237    -127.698
  N      -32.298      22.451    -128.784
  C      -31.126      21.890    -129.123
  C      -29.904      22.044    -128.492
  C      -29.874      22.900    -127.379
  N      -28.704      23.215    -126.708
  N      -28.923      21.320    -129.142
  C      -29.541      20.755    -130.156
  N      -30.874      21.064    -130.184
  O      -28.544      20.909    -135.150
  O      -26.557      19.958    -133.840
  H      -33.998      21.402    -131.921
  H      -27.833      21.501    -135.456
  H      -33.052      23.727    -127.343
  H      -29.067      20.123    -130.895
  H      -32.784      20.408    -130.620
  H      -31.873      22.720    -131.979
  H      -30.159      21.475    -133.170
  H      -32.347      19.351    -133.630
  H      -30.484      17.762    -133.662
  H      -28.718      24.135    -126.279
  H      -27.857      22.954    -127.199
  H      -30.297      18.968    -134.960
  P      -30.824      22.848    -135.319
  C      -32.666      24.624    -134.940
  O      -31.356      24.185    -134.607
  O      -31.453      22.923    -136.789
  O      -29.344      22.687    -135.372
  H      -30.743      22.850    -137.456
  H      -32.891      25.519    -134.398
  H      -33.373      23.864    -134.682
  H      -32.720      24.820    -135.990

 6  7  8  9  10  11  12  13  14  15  25  28  32  33  34  35 0
 6-311+G(2d,p)
 ****
 36  39  40 0
 6-311+G(2d,p)
 ****
 1  2  3  4  5  16  17  18  19  20  21  22  23  24 0
 3-21G
 ****
 26  27  29  30  31  37  38  41  42  43  44  45  46  47  48 0
 3-21G
 ****


