%nproc=1
%NoSave
%Mem=1900MB
#P OB98/GEN NMR

erre ene a

0 1
  C     -200.536    -274.302     -55.983
  O     -200.165    -275.661     -56.208
  P     -198.903    -276.378     -55.549
  C     -196.306    -276.322     -55.925
  O     -197.603    -275.977     -56.391
  C     -195.393    -276.877     -57.033
  O     -195.810    -278.224     -57.375
  C     -195.530    -276.044     -58.308
  O     -194.792    -274.845     -58.459
  C     -195.335    -277.040     -59.442
  O     -193.984    -277.088     -59.903
  C     -195.733    -278.376     -58.810
  N     -198.085    -281.133     -62.421
  C     -196.751    -280.786     -62.318
  N     -195.946    -281.180     -63.328
  N     -196.257    -280.101     -61.322
  C     -197.186    -279.694     -60.426
  C     -198.538    -279.958     -60.431
  C     -199.066    -280.768     -61.510
  O     -200.237    -281.114     -61.643
  N     -199.170    -279.362     -59.370
  C     -198.209    -278.720     -58.739
  N     -196.982    -278.897     -59.338
  O     -199.077    -277.825     -55.227
  O     -198.712    -275.590     -54.154
  H     -193.423    -277.361     -59.154
  H     -198.363    -276.240     -53.511
  H     -198.407    -281.682     -63.197
  H     -198.343    -278.124     -57.843
  H     -194.972    -279.145     -58.998
  H     -195.948    -276.763     -60.310
  H     -196.284    -281.603     -64.176
  H     -196.583    -275.731     -58.373
  H     -195.021    -280.744     -63.366
  H     -194.363    -276.960     -56.682
  H     -196.444    -277.067     -55.135
  H     -195.836    -275.456     -55.457
  P     -195.390    -273.361     -58.484
  C     -196.479    -271.796     -60.197
  O     -195.772    -273.006     -59.998
  O     -194.117    -272.427     -58.218
  O     -196.465    -273.095     -57.482
  H     -194.399    -271.531     -57.958
  H     -196.945    -271.814     -61.187
  H     -195.782    -270.953     -60.146
  H     -197.259    -271.671     -59.441
  H     -201.418    -274.076     -56.544
  H     -199.740    -273.659     -56.295
  H     -200.728    -274.152     -54.941

 3  4  5  6  7  8  9  10  11  12  23  26  30  31 0
 6-311+G(2d,p)
 ****
 33  35  36  37  38 0
 6-311+G(2d,p)
 ****
 1  2  13  14  15  16  17  18  19  20  21  22  24  25 0
 3-21G
 ****
 27  28  29  32  34  39  40  41  42  43  44  45  46  47  48  49 0
 3-21G
 ****


