%nproc=1
%NoSave
%Mem=1900MB
#P OB98/GEN NMR

erre ene a

0 1
  C      267.464     140.166     497.649
  O      266.505     139.358     496.993
  H      268.112     140.617     496.895
  H      268.077     139.562     498.320
  H      266.972     140.967     498.211
  P      265.425     138.574     497.885
  C      266.176     136.319     496.841
  O      266.035     137.092     498.025
  C      266.742     134.944     497.165
  O      268.114     135.026     497.607
  C      266.024     134.206     498.291
  O      264.748     133.696     497.925
  C      267.026     133.103     498.570
  O      266.946     132.102     497.540
  C      268.356     133.891     498.487
  N      268.828     134.348     499.798
  C      269.785     133.545     500.432
  O      270.190     132.508     499.904
  N      270.240     133.924     501.677
  C      269.764     134.990     502.246
  N      270.246     135.310     503.478
  C      268.743     135.850     501.618
  C      268.322     135.476     500.412
  O      264.005     138.641     497.411
  O      265.635     139.151     499.369
  H      266.071     131.682     497.617
  H      264.982     138.704     499.957
  H      268.358     136.708     502.149
  H      267.563     136.058     499.891
  H      269.143     133.281     498.020
  H      266.862     132.600     499.528
  H      265.943     134.841     499.191
  H      266.736     134.355     496.236
  H      270.944     134.703     503.885
  H      266.836     136.866     496.157
  H      269.879     136.076     504.029
  H      265.200     136.192     496.357
  P      263.671     133.512     499.109
  C      263.274     130.932     498.918
  O      263.849     132.009     499.644
  O      262.271     133.490     498.320
  O      263.713     134.562     500.177
  H      261.847     134.365     498.358
  H      263.491     130.010     499.416
  H      263.684     130.909     497.930
  H      262.214     131.066     498.861

 6  7  8  9  10  11  12  13  14  15  16  26  30  31  32  33  35 0
 6-311+G(2d,p)
 ****
 37  38 0
 6-311+G(2d,p)
 ****
 1  2  3  4  5  17  18  19  20  21  22  23  24  25 0
 3-21G
 ****
 27  28  29  34  36  39  40  41  42  43  44  45  46 0
 3-21G
 ****


