%nproc=1
%NoSave
%Mem=1900MB
#P OB98/GEN NMR

erre ene a

0 1
  C     -801.029     343.360    -223.674
  O     -799.670     343.725    -223.477
  P     -798.483     342.925    -224.204
  C     -797.461     342.320    -221.927
  O     -798.018     341.819    -223.138
  C     -796.146     341.595    -221.617
  O     -796.260     340.226    -222.071
  C     -794.905     342.142    -222.314
  O     -794.291     343.245    -221.649
  C     -793.980     340.939    -222.243
  O     -793.407     340.838    -220.922
  C     -794.945     339.776    -222.486
  N     -792.616     337.012    -226.109
  C     -792.347     337.194    -224.800
  N     -793.008     337.965    -223.901
  C     -794.071     338.548    -224.475
  C     -794.477     338.452    -225.793
  C     -793.700     337.637    -226.636
  N     -793.998     337.432    -227.972
  N     -795.613     339.214    -226.013
  C     -795.890     339.742    -224.842
  N     -794.991     339.365    -223.877
  O     -797.403     343.792    -224.759
  O     -799.223     342.055    -225.321
  H     -793.004     341.705    -220.723
  H     -798.567     341.737    -225.984
  H     -791.482     336.652    -224.417
  H     -796.717     340.408    -224.637
  H     -794.707     338.893    -221.883
  H     -793.147     340.991    -222.944
  H     -795.104     342.378    -223.366
  H     -796.012     341.577    -220.530
  H     -798.169     342.124    -221.116
  H     -793.460     336.729    -228.460
  H     -794.882     337.764    -228.313
  H     -797.308     343.397    -222.001
  P     -793.650     344.395    -222.572
  C     -791.337     343.483    -223.366
  O     -792.709     343.641    -223.623
  O     -793.016     345.504    -221.819
  O     -794.903     344.863    -223.462
  H     -795.231     344.206    -224.098
  H     -790.905     342.810    -224.110
  H     -791.174     343.051    -222.376
  H     -790.823     344.453    -223.429
  H     -801.659     344.012    -223.106
  H     -801.177     342.350    -223.352
  H     -801.274     343.443    -224.712

 3  4  5  6  7  8  9  10  11  12  22  25  29  30  31  32 0
 6-311+G(2d,p)
 ****
 33  36  37 0
 6-311+G(2d,p)
 ****
 1  2  13  14  15  16  17  18  19  20  21  23  24  26 0
 3-21G
 ****
 27  28  34  35  38  39  40  41  42  43  44  45  46  47  48 0
 3-21G
 ****


