%nproc=1
%NoSave
%Mem=1900MB
#P OB98/GEN NMR

erre ene a

0 1
  C     -736.316    -162.711    -892.050
  O     -735.167    -163.455    -892.460
  P     -734.774    -163.561    -894.000
  C     -735.052    -166.114    -894.280
  O     -735.588    -164.822    -894.560
  C     -735.824    -167.186    -895.030
  O     -737.182    -167.215    -894.520
  C     -735.971    -166.981    -896.540
  O     -734.872    -167.432    -897.310
  C     -737.193    -167.851    -896.840
  O     -736.780    -169.232    -896.900
  C     -738.065    -167.615    -895.610
  N     -742.371    -166.357    -898.090
  C     -741.638    -167.496    -898.070
  N     -740.490    -167.750    -897.400
  C     -740.140    -166.684    -896.660
  C     -740.779    -165.450    -896.580
  C     -741.945    -165.305    -897.350
  N     -742.697    -164.140    -897.360
  N     -740.099    -164.587    -895.740
  C     -739.076    -165.301    -895.310
  N     -739.066    -166.565    -895.820
  O     -733.295    -163.593    -894.270
  O     -735.504    -162.306    -894.690
  H     -736.100    -169.291    -897.600
  H     -735.107    -162.146    -895.570
  H     -742.023    -168.328    -898.660
  H     -738.325    -164.937    -894.620
  H     -738.599    -168.519    -895.280
  H     -737.658    -167.614    -897.800
  H     -736.225    -165.926    -896.770
  H     -735.364    -168.159    -894.820
  H     -735.140    -166.288    -893.200
  H     -743.599    -164.177    -897.840
  H     -742.475    -163.433    -896.680
  H     -733.996    -166.128    -894.540
  P     -734.828    -166.999    -898.870
  C     -734.529    -169.539    -899.490
  O     -735.233    -168.319    -899.670
  O     -733.561    -166.356    -899.290
  O     -736.120    -166.071    -899.010
  H     -736.981    -166.513    -898.900
  H     -735.062    -170.330    -900.000
  H     -734.458    -169.793    -898.430
  H     -733.525    -169.450    -899.910
  H     -736.411    -162.759    -890.985
  H     -737.191    -163.126    -892.505
  H     -736.207    -161.691    -892.353

 3  4  5  6  7  8  9  10  11  12  22  25  29  30  31  32 0
 6-311+G(2d,p)
 ****
 33  36  37 0
 6-311+G(2d,p)
 ****
 1  2  13  14  15  16  17  18  19  20  21  23  24  26 0
 3-21G
 ****
 27  28  34  35  38  39  40  41  42  43  44  45  46  47  48 0
 3-21G
 ****


