%nproc=1
%NoSave
%Mem=1900MB
#P OB98/GEN NMR

erre ene a

0 1
  C     1456.861    -222.834     826.202
  O     1455.683    -222.794     825.382
  P     1455.496    -224.018     824.356
  C     1455.794    -222.394     822.351
  O     1455.005    -223.407     822.956
  C     1455.380    -222.180     820.880
  O     1455.593    -223.369     820.107
  C     1453.913    -221.834     820.707
  O     1453.642    -220.458     821.011
  C     1453.704    -222.141     819.233
  O     1454.145    -220.998     818.438
  C     1454.626    -223.329     818.998
  N     1451.462    -226.289     816.371
  C     1451.964    -225.045     816.070
  N     1451.590    -224.504     814.894
  N     1452.756    -224.363     816.862
  C     1453.080    -225.010     817.992
  C     1452.654    -226.273     818.427
  C     1451.740    -227.002     817.533
  O     1451.247    -228.079     817.781
  N     1453.207    -226.638     819.613
  C     1453.980    -225.600     819.927
  N     1453.953    -224.606     818.969
  O     1454.160    -224.749     824.897
  O     1456.654    -224.947     824.289
  H     1455.115    -220.935     818.586
  H     1454.168    -225.683     824.674
  H     1450.841    -226.762     815.746
  H     1454.606    -225.539     820.810
  H     1455.208    -223.231     818.065
  H     1452.648    -222.324     818.978
  H     1451.046    -224.986     814.214
  H     1453.275    -222.519     821.325
  H     1451.960    -223.599     814.625
  H     1455.986    -221.374     820.471
  H     1456.873    -222.699     822.371
  H     1455.702    -221.471     822.931
  P     1453.021    -220.133     822.430
  C     1450.969    -219.341     821.082
  O     1451.806    -219.108     822.173
  O     1454.134    -219.209     823.101
  O     1452.696    -221.318     823.274
  H     1454.121    -219.298     824.092
  H     1450.691    -220.405     821.012
  H     1451.456    -219.025     820.142
  H     1450.041    -218.754     821.197
  H     1456.880    -221.976     826.841
  H     1457.730    -222.834     825.578
  H     1456.850    -223.722     826.798

 3  4  5  6  7  8  9  10  11  12  23  26  30  31  33  0
 6-311+G(2d,p)
 ****
 35  36  37  38 0
 6-311+G(2d,p)
 ****
 1  2  13  14  15  16  17  18  19  20  21  22  24  25  27  28  29 0
 3-21G
 ****
 32  34  39  40  41  42  43  44  45  46  47  48  49 0
 3-21G
 ****


