%nproc=1
%NoSave
%Mem=1900MB
#P OB98/GEN NMR

erre ene a

0 1
  C     -132.512    -346.012     378.297
  O     -132.164    -347.120     377.489
  H     -133.404    -345.540     377.878
  H     -131.705    -345.276     378.319
  H     -132.740    -346.347     379.311
  P     -130.736    -347.814     377.733
  C     -128.302    -346.961     377.814
  O     -129.646    -346.659     377.463
  C     -127.309    -346.289     376.864
  O     -127.440    -346.820     375.529
  C     -127.524    -344.792     376.706
  O     -127.257    -344.031     377.864
  C     -126.745    -344.498     375.429
  O     -125.351    -344.336     375.668
  C     -127.000    -345.789     374.618
  N     -127.958    -345.587     373.533
  C     -127.701    -344.506     372.688
  O     -126.745    -343.740     372.832
  N     -128.602    -344.315     371.681
  C     -129.734    -345.050     371.466
  O     -130.517    -344.814     370.548
  C     -129.974    -346.154     372.416
  C     -129.083    -346.370     373.390
  O     -130.486    -349.073     376.953
  O     -130.668    -348.012     379.320
  H     -125.081    -345.058     376.269
  H     -129.954    -348.646     379.569
  H     -128.430    -343.549     371.045
  H     -130.868    -346.747     372.281
  H     -129.240    -347.176     374.101
  H     -126.061    -346.154     374.175
  H     -127.100    -343.591     374.933
  H     -128.582    -344.618     376.470
  H     -126.296    -346.513     377.216
  H     -128.179    -348.050     377.755
  H     -128.113    -346.642     378.848
  P     -127.886    -342.591     378.144
  C     -127.780    -340.229     377.028
  O     -127.262    -341.552     377.092
  O     -127.983    -342.170     379.574
  O     -129.390    -342.780     377.584
  H     -129.980    -342.232     378.151
  H     -127.253    -339.676     376.279
  H     -127.656    -339.751     377.977
  H     -128.820    -340.265     376.780

 6  7  8  9  10  11  12  13  14  15  16  26  31  32  33  34  35 0
 6-311+G(2d,p)
 ****
 36  37 0
 6-311+G(2d,p)
 ****
 1  2  3  4  5  17  18  19  20  21  22  23  24  25 0
 3-21G
 ****
 27  28  29  30  38  39  40  41  42  43  44  45 0
 3-21G
 ****


