%nproc=1
%NoSave
%Mem=1900MB
#P OB98/GEN NMR

erre ene a

0 1
  C       60.948    -214.157      63.248
  O       61.847    -215.242      63.146
  H       60.957    -213.574      62.324
  H       59.939    -214.548      63.407
  H       61.217    -213.520      64.094
  P       63.387    -214.866      62.890
  C       64.688    -216.790      64.032
  O       64.194    -216.255      62.813
  C       63.639    -217.699      64.668
  O       63.292    -218.730      63.707
  C       64.106    -218.389      65.961
  O       63.138    -218.214      67.002
  C       64.163    -219.861      65.596
  O       63.808    -220.716      66.677
  C       63.177    -219.957      64.439
  N       62.513    -224.986      63.925
  C       61.836    -224.065      64.646
  N       62.001    -222.727      64.664
  C       62.965    -222.356      63.803
  C       63.723    -223.176      62.985
  C       63.480    -224.557      63.084
  N       64.208    -225.500      62.390
  N       64.622    -222.433      62.242
  C       64.438    -221.190      62.637
  N       63.457    -221.096      63.591
  O       63.847    -214.238      64.290
  O       63.615    -213.919      61.762
  H       64.315    -220.424      67.456
  H       64.124    -213.314      64.143
  H       61.061    -224.456      65.301
  H       65.011    -220.333      62.305
  H       62.140    -220.041      64.794
  H       65.182    -220.109      65.275
  H       65.079    -218.025      66.305
  H       62.731    -217.113      64.853
  H       64.918    -215.973      64.725
  H       64.047    -226.469      62.608
  H       65.002    -225.191      61.848
  H       65.607    -217.350      63.831
  P       63.599    -217.318      68.257
  C       61.249    -216.449      68.941
  O       62.372    -217.245      69.293
  O       63.677    -215.843      67.641
  O       64.906    -217.733      68.843
  H       64.568    -215.470      67.780
  H       60.519    -216.497      69.722
  H       60.823    -216.816      68.031
  H       61.560    -215.434      68.806

 6  7  8  9  10  11  12  13  14  15  25  28  32  33  34  35 0
 6-311+G(2d,p)
 ****
 36  39  40 0
 6-311+G(2d,p)
 ****
 1  2  3  4  5  16  17  18  19  20  21  22  23  24 0
 3-21G
 ****
 26  27  29  30  31  37  38  41  42  43  44  45  46  47  48 0
 3-21G
 ****


