%nproc=1
%NoSave
%Mem=1900MB
#P OB98/GEN NMR

erre ene a

0 1
  C     -225.967     490.493    -297.575
  O     -224.969     491.460    -297.334
  H     -225.799     489.642    -296.912
  H     -225.907     490.147    -298.611
  H     -226.959     490.903    -297.376
  P     -225.110     492.872    -298.086
  C     -222.771     493.256    -299.153
  O     -223.649     493.547    -298.074
  C     -221.332     493.627    -298.782
  O     -221.335     494.947    -298.175
  C     -220.680     492.659    -297.795
  O     -219.307     492.494    -298.154
  C     -220.774     493.380    -296.461
  O     -219.773     492.963    -295.535
  C     -220.672     494.850    -296.899
  N     -221.264     495.747    -295.908
  C     -220.504     496.000    -294.764
  O     -219.401     495.472    -294.620
  N     -221.037     496.795    -293.782
  C     -222.255     497.234    -293.894
  N     -222.737     497.991    -292.873
  C     -223.115     496.932    -295.061
  C     -222.558     496.195    -296.021
  O     -225.934     493.766    -297.047
  O     -225.755     492.819    -299.432
  H     -219.973     493.372    -294.661
  H     -226.498     494.416    -297.509
  H     -224.128     497.294    -295.092
  H     -223.110     495.920    -296.908
  H     -219.624     495.132    -297.051
  H     -221.754     493.189    -296.009
  H     -221.168     491.678    -297.766
  H     -220.746     493.701    -299.707
  H     -222.121     498.164    -292.088
  H     -223.078     493.842    -300.025
  H     -223.684     498.345    -292.835
  H     -222.842     492.190    -299.397
  P     -218.819     491.000    -298.478
  C     -216.357     491.242    -297.682
  O     -217.241     491.050    -298.778
  O     -219.475     490.700    -299.904
  O     -219.241     490.001    -297.451
  H     -220.200     490.057    -299.810
  H     -215.347     491.253    -298.036
  H     -216.480     490.444    -296.980
  H     -216.578     492.174    -297.205

 6  7  8  9  10  11  12  13  14  15  16  26  30  31  32  33  35 0
 6-311+G(2d,p)
 ****
 37  38 0
 6-311+G(2d,p)
 ****
 1  2  3  4  5  17  18  19  20  21  22  23  24  25 0
 3-21G
 ****
 27  28  29  34  36  39  40  41  42  43  44  45  46 0
 3-21G
 ****


