%nproc=1
%NoSave
%Mem=1900MB
#P OB98/GEN NMR

erre ene a

0 1
  C     -178.212     -98.561      10.596
  O     -176.962     -98.823      11.245
  P     -175.885     -99.810      10.577
  C     -174.501     -98.653       8.758
  O     -174.590     -98.956      10.149
  C     -173.444     -97.589       8.433
  O     -173.784     -96.316       9.039
  C     -172.020     -97.935       8.885
  O     -171.147     -97.354       7.908
  C     -171.914     -97.204      10.209
  O     -170.567     -97.016      10.627
  C     -172.699     -95.922       9.899
  N     -173.175     -95.255      11.107
  C     -172.346     -94.275      11.660
  O     -171.240     -94.045      11.166
  N     -172.763     -93.613      12.789
  C     -173.870     -93.969      13.368
  N     -174.224     -93.293      14.497
  C     -174.736     -95.056      12.869
  C     -174.337     -95.642      11.739
  O     -176.430    -100.695       9.505
  O     -175.351    -100.685      11.812
  H     -170.575     -96.543      11.487
  H     -175.090    -101.570      11.492
  H     -175.634     -95.337      13.402
  H     -174.906     -96.444      11.289
  H     -172.072     -95.212       9.337
  H     -172.428     -97.780      10.993
  H     -171.842     -99.007       8.977
  H     -173.461     -97.433       7.347
  H     -173.590     -92.572      14.822
  H     -175.481     -98.298       8.418
  H     -174.997     -93.564      15.086
  H     -174.283     -99.575       8.208
  P     -170.416     -98.237       6.787
  C     -172.084     -97.387       5.039
  O     -170.716     -97.534       5.379
  O     -170.730     -99.697       6.838
  O     -168.851     -97.967       7.009
  H     -168.339     -98.672       6.563
  H     -172.168     -96.717       4.181
  H     -172.650     -96.962       5.877
  H     -172.509     -98.361       4.777
  H     -178.788     -97.885      11.192
  H     -178.750     -99.478      10.475
  H     -178.031     -98.125       9.636

 3  4  5  6  7  8  9  10  11  12  13  23  27  28  29  30  32 0
 6-311+G(2d,p)
 ****
 34  35 0
 6-311+G(2d,p)
 ****
 1  2  14  15  16  17  18  19  20  21  22  24  25  26 0
 3-21G
 ****
 31  33  36  37  38  39  40  41  42  43  44  45  46 0
 3-21G
 ****


