%nproc=1
%NoSave
%Mem=1900MB
#P OB98/GEN NMR

erre ene a

0 1
  C     1658.766    -891.910     304.930
  O     1657.334    -891.870     304.916
  P     1656.475    -890.520     304.830
  C     1654.887    -890.840     302.789
  O     1656.080    -890.290     303.294
  C     1655.106    -892.180     302.002
  O     1655.552    -893.200     302.937
  C     1653.809    -892.670     301.394
  O     1653.373    -892.160     300.156
  C     1653.913    -894.200     301.464
  O     1654.403    -894.750     300.236
  C     1654.921    -894.430     302.615
  N     1652.493    -898.450     304.654
  C     1652.869    -898.250     303.353
  N     1652.565    -899.210     302.473
  N     1653.541    -897.180     302.953
  C     1653.708    -896.230     303.930
  C     1653.357    -896.340     305.244
  C     1652.694    -897.560     305.709
  O     1652.344    -897.790     306.837
  N     1653.692    -895.200     305.927
  C     1654.237    -894.420     305.032
  N     1654.254    -895.030     303.758
  O     1657.040    -889.340     305.582
  O     1655.075    -890.930     305.531
  H     1654.630    -895.690     300.401
  H     1654.759    -890.110     305.978
  H     1652.026    -899.300     304.923
  H     1654.627    -893.420     305.207
  H     1655.707    -895.130     302.303
  H     1652.918    -894.650     301.620
  H     1651.978    -900.000     302.698
  H     1653.003    -892.420     302.132
  H     1652.669    -898.960     301.485
  H     1655.933    -892.070     301.280
  H     1654.451    -890.100     302.110
  H     1654.160    -891.000     303.584
  P     1652.229    -891.060     299.939
  C     1653.620    -889.340     298.605
  O     1652.983    -889.620     299.836
  O     1651.488    -890.960     301.342
  O     1651.253    -891.340     298.810
  H     1650.621    -890.490     301.248
  H     1654.322    -888.520     298.758
  H     1652.887    -889.020     297.864
  H     1654.183    -890.230     298.233
  H     1659.094    -892.927     304.992
  H     1659.130    -891.366     305.776
  H     1659.144    -891.468     304.032

 3  4  5  6  7  8  9  10  11  12  23  26  30  31 0
 6-311+G(2d,p)
 ****
 33  35  36  37  38 0
 6-311+G(2d,p)
 ****
 1  2  13  14  15  16  17  18  19  20  21  22  24  25 0
 3-21G
 ****
 27  28  29  32  34  39  40  41  42  43  44  45  46  47  48  49 0
 3-21G
 ****


