%nproc=1
%NoSave
%Mem=1900MB
#P OB98/GEN NMR

erre ene a

0 1
  C      216.396      10.833     530.108
  O      215.523      10.225     529.162
  P      214.328      11.119     528.569
  C      211.718      10.829     528.556
  O      212.959      10.603     529.212
  C      210.615      11.180     529.571
  O      210.400      10.039     530.425
  C      210.936      12.338     530.510
  O      209.712      12.822     531.070
  C      211.750      11.647     531.585
  O      211.813      12.426     532.774
  C      211.036      10.280     531.711
  N      211.940       9.162     532.057
  C      212.620       9.212     533.270
  O      212.524      10.124     534.083
  N      213.476       8.174     533.523
  C      213.684       7.092     532.711
  O      214.518       6.226     532.944
  C      212.835       7.017     531.513
  C      212.029       8.048     531.243
  O      214.240      10.669     527.036
  O      214.561      12.593     528.709
  H      210.876      12.598     533.048
  H      214.619      11.348     526.461
  H      214.026       8.218     534.365
  H      212.915       6.151     530.877
  H      211.410       8.022     530.346
  H      210.250      10.314     532.490
  H      212.777      11.497     531.236
  H      211.492      13.166     530.048
  H      209.679      11.369     529.027
  H      211.436       9.935     527.982
  H      211.825      11.652     527.833
  P      209.350      14.373     530.857
  C      209.188      16.455     532.353
  O      209.358      15.047     532.313
  O      208.151      14.650     530.016
  O      210.687      14.961     530.188
  H      210.483      15.805     529.745
  H      208.700      16.717     533.296
  H      208.571      16.820     531.520
  H      210.173      16.933     532.310
  H      217.138      10.126     530.414
  H      215.833      11.151     530.960
  H      216.873      11.679     529.660

 3  4  5  6  7  8  9  10  11  12  13  23  28  29  30  31  32 0
 6-311+G(2d,p)
 ****
 33  34 0
 6-311+G(2d,p)
 ****
 1  2  14  15  16  17  18  19  20  21  22  24  25  26  27 0
 3-21G
 ****
 35  36  37  38  39  40  41  42  43  44  45 0
 3-21G
 ****


