%nproc=1
%NoSave
%Mem=1900MB
#P OB98/GEN NMR

erre ene a

0 1
  C     1169.319    -948.911    -669.959
  O     1169.838    -949.204    -668.653
  P     1171.094    -948.432    -668.014
  C     1170.107    -948.244    -665.633
  O     1170.573    -947.536    -666.768
  C     1169.908    -947.306    -664.434
  O     1171.181    -946.687    -664.061
  C     1168.896    -946.171    -664.679
  O     1168.176    -946.004    -663.449
  C     1169.806    -944.984    -664.938
  O     1169.172    -943.727    -664.795
  C     1170.921    -945.277    -663.928
  N     1172.143    -944.505    -664.097
  C     1172.612    -943.768    -662.990
  O     1171.982    -943.716    -661.942
  N     1173.799    -943.077    -663.118
  C     1174.447    -943.083    -664.239
  N     1175.611    -942.390    -664.289
  C     1173.982    -943.846    -665.418
  C     1172.855    -944.508    -665.276
  O     1171.894    -947.661    -669.004
  O     1171.986    -949.568    -667.321
  H     1172.927    -949.334    -667.409
  H     1168.381    -943.731    -665.343
  H     1174.563    -943.836    -666.341
  H     1172.462    -945.115    -666.102
  H     1170.531    -945.116    -662.903
  H     1170.179    -945.048    -665.967
  H     1168.190    -946.377    -665.473
  H     1169.594    -947.917    -663.580
  H     1175.894    -941.901    -663.450
  H     1170.846    -949.011    -665.368
  H     1176.198    -942.346    -665.108
  H     1169.172    -948.742    -665.891
  P     1167.083    -947.090    -663.005
  C     1168.120    -947.816    -660.726
  O     1167.821    -948.167    -662.073
  O     1166.901    -947.929    -664.368
  O     1165.762    -946.570    -662.558
  H     1166.014    -948.351    -664.375
  H     1167.846    -948.657    -660.077
  H     1167.589    -946.930    -660.397
  H     1169.199    -947.644    -660.657
  H     1168.486    -949.551    -670.164
  H     1170.082    -949.074    -670.691
  H     1169.001    -947.890    -669.996

 3  4  5  6  7  8  9  10  11  12  13  24  27  28  29  30  32 0
 6-311+G(2d,p)
 ****
 34  35 0
 6-311+G(2d,p)
 ****
 1  2  14  15  16  17  18  19  20  21  22  23  25  26 0
 3-21G
 ****
 31  33  36  37  38  39  40  41  42  43  44  45  46 0
 3-21G
 ****


