%nproc=1
%NoSave
%Mem=1900MB
#P OB98/GEN NMR

erre ene a

0 1
  C     -691.109     249.932     283.488
  O     -690.405     251.076     283.042
  H     -691.282     249.271     282.636
  H     -692.079     250.238     283.898
  H     -690.535     249.391     284.246
  P     -689.759     252.018     284.174
  C     -687.685     250.505     284.587
  O     -688.884     251.053     285.120
  C     -686.547     251.510     284.715
  O     -686.338     251.859     286.098
  C     -685.200     251.007     284.192
  O     -685.089     251.173     282.787
  C     -684.248     251.941     284.933
  O     -684.243     253.232     284.287
  C     -684.906     252.038     286.315
  N     -681.938     251.206     290.352
  C     -682.093     252.350     289.586
  N     -681.363     253.420     289.952
  N     -682.900     252.439     288.573
  C     -683.563     251.279     288.296
  C     -683.482     250.079     288.978
  C     -682.602     250.005     290.118
  O     -682.426     249.019     290.834
  N     -684.300     249.131     288.420
  C     -684.862     249.748     287.398
  N     -684.444     251.050     287.278
  O     -691.024     252.395     285.085
  O     -689.069     253.239     283.669
  H     -683.804     253.115     283.430
  H     -691.305     253.303     284.866
  H     -681.297     251.191     291.127
  H     -685.571     249.303     286.717
  H     -684.756     253.029     286.768
  H     -683.212     251.575     284.921
  H     -680.701     253.415     290.713
  H     -685.007     249.976     284.495
  H     -681.468     254.273     289.415
  H     -686.844     252.426     284.189
  H     -687.844     250.265     283.533
  H     -687.444     249.591     285.138
  P     -684.062     250.237     281.988
  C     -685.973     248.680     281.160
  O     -684.741     248.783     281.870
  O     -682.890     250.016     283.056
  O     -683.540     250.799     280.715
  H     -682.074     250.474     282.755
  H     -686.303     247.662     281.164
  H     -685.831     249.005     280.151
  H     -686.710     249.295     281.633

 6  7  8  9  10  11  12  13  14  15  26  29  33  34 0
 6-311+G(2d,p)
 ****
 36  38  39  40  41 0
 6-311+G(2d,p)
 ****
 1  2  3  4  5  16  17  18  19  20  21  22  23  24  25 0
 3-21G
 ****
 27  28  30  31  32  35  37  42  43  44  45  46  47 0
 3-21G
 ****
 48  49 0
 3-21G
 ****


