%nproc=1
%NoSave
%Mem=1900MB
#P OB98/GEN NMR

erre ene a

0 1
  C     -222.323     309.109     419.071
  O     -222.506     309.167     420.465
  H     -222.989     309.839     418.603
  H     -222.580     308.117     418.691
  H     -221.292     309.357     418.803
  P     -221.676     308.165     421.410
  C     -222.991     306.006     420.958
  O     -222.741     307.053     421.887
  C     -223.670     304.819     421.640
  O     -222.793     304.283     422.670
  C     -225.009     305.173     422.308
  O     -225.997     304.197     421.958
  C     -224.701     305.077     423.797
  O     -225.858     304.818     424.589
  C     -223.631     303.977     423.797
  N     -222.892     303.938     425.052
  C     -223.575     303.426     426.158
  O     -224.741     303.039     426.042
  N     -222.954     303.421     427.380
  C     -221.763     303.926     427.493
  N     -221.209     303.915     428.737
  C     -221.012     304.498     426.356
  C     -221.629     304.469     425.174
  O     -220.921     308.830     422.514
  O     -220.734     307.342     420.408
  H     -225.567     304.563     425.491
  H     -219.967     306.983     420.915
  H     -220.022     304.909     426.505
  H     -221.157     304.867     424.284
  H     -224.085     302.989     423.627
  H     -224.262     306.020     424.133
  H     -225.378     306.162     422.040
  H     -223.794     304.018     420.898
  H     -221.760     303.515     429.490
  H     -222.036     305.698     420.511
  H     -220.302     304.295     428.952
  H     -223.648     306.391     420.171
  P     -227.115     304.665     420.908
  C     -228.812     305.551     422.659
  O     -228.541     304.598     421.640
  O     -227.157     303.463     419.854
  O     -226.796     305.968     420.241
  H     -226.786     303.753     419.002
  H     -229.793     305.384     423.052
  H     -228.756     306.538     422.249
  H     -228.091     305.449     423.443

 6  7  8  9  10  11  12  13  14  15  16  26  30  31  32  33  35 0
 6-311+G(2d,p)
 ****
 37  38 0
 6-311+G(2d,p)
 ****
 1  2  3  4  5  17  18  19  20  21  22  23  24  25 0
 3-21G
 ****
 27  28  29  34  36  39  40  41  42  43  44  45  46 0
 3-21G
 ****


