%nproc=1
%NoSave
%Mem=1900MB
#P OB98/GEN NMR

erre ene a

0 1
  C       30.653     510.894      84.137
  O       30.826     510.408      85.455
  H       30.876     511.961      84.123
  H       29.621     510.747      83.811
  H       31.336     510.382      83.458
  P       30.436     508.872      85.706
  C       30.966     509.390      88.211
  O       30.060     508.835      87.270
  C       30.488     509.108      89.631
  O       29.229     509.775      89.887
  C       30.230     507.637      89.934
  O       31.413     506.889      90.159
  C       29.388     507.770      91.191
  O       30.237     508.111      92.299
  C       28.469     508.946      90.801
  N       27.211     508.511      90.175
  C       26.412     507.629      90.909
  O       26.758     507.253      92.029
  N       25.246     507.168      90.351
  C       24.892     507.562      89.165
  N       23.734     507.072      88.660
  C       25.703     508.499      88.357
  C       26.832     508.924      88.916
  O       31.848     508.119      85.664
  O       29.399     508.302      84.798
  H       30.710     508.930      92.053
  H       31.738     507.178      85.960
  H       25.379     508.785      87.364
  H       27.478     509.615      88.381
  H       28.222     509.559      91.676
  H       28.867     506.852      91.459
  H       29.617     507.167      89.142
  H       31.230     509.533      90.323
  H       23.232     506.383      89.216
  H       31.016     510.471      88.037
  H       23.452     507.201      87.693
  H       31.962     508.959      88.069
  P       31.360     505.312      89.871
  C       33.657     504.962      91.049
  O       32.287     504.602      90.970
  O       32.205     505.156      88.519
  O       29.973     504.739      89.732
  H       31.847     504.440      87.959
  H       34.129     504.400      91.828
  H       33.739     506.007      91.263
  H       34.136     504.750      90.116

 6  7  8  9  10  11  12  13  14  15  16  26  30  31  32  33  35 0
 6-311+G(2d,p)
 ****
 37  38 0
 6-311+G(2d,p)
 ****
 1  2  3  4  5  17  18  19  20  21  22  23  24  25 0
 3-21G
 ****
 27  28  29  34  36  39  40  41  42  43  44  45  46 0
 3-21G
 ****


