%nproc=1
%NoSave
%Mem=1900MB
#P OB98/GEN NMR

erre ene a

0 1
  C     -282.686    -166.616      64.875
  O     -282.800    -168.000      65.142
  H     -283.687    -166.205      64.723
  H     -282.096    -166.454      63.968
  H     -282.217    -166.104      65.719
  P     -281.433    -168.793      65.417
  C     -282.258    -170.146      67.478
  O     -281.845    -170.176      66.118
  C     -283.223    -171.298      67.746
  O     -284.530    -170.973      67.217
  C     -282.826    -172.603      67.073
  O     -281.800    -173.283      67.772
  C     -284.153    -173.346      67.070
  O     -284.391    -173.997      68.324
  C     -285.168    -172.218      66.854
  N     -287.594    -174.809      63.186
  C     -287.353    -175.096      64.484
  N     -286.707    -174.344      65.401
  C     -286.319    -173.174      64.866
  C     -286.497    -172.742      63.562
  C     -287.173    -173.619      62.697
  N     -287.396    -173.340      61.369
  N     -285.923    -171.501      63.380
  C     -285.416    -171.183      64.553
  N     -285.633    -172.161      65.482
  O     -280.759    -167.952      66.601
  O     -280.527    -168.920      64.239
  H     -285.228    -174.491      68.222
  H     -280.073    -167.363      66.232
  H     -287.716    -176.059      64.827
  H     -284.880    -170.268      64.775
  H     -286.052    -172.329      67.493
  H     -284.170    -174.109      66.291
  H     -282.526    -172.416      66.034
  H     -283.317    -171.430      68.832
  H     -282.762    -169.197      67.683
  H     -281.374    -170.226      68.119
  H     -287.826    -174.044      60.791
  H     -286.986    -172.505      60.969
  P     -280.896    -174.319      66.949
  C     -278.728    -174.169      68.390
  O     -279.840    -174.950      67.974
  O     -280.000    -173.384      66.008
  O     -281.666    -175.323      66.159
  H     -279.852    -173.821      65.148
  H     -278.127    -174.737      69.069
  H     -279.077    -173.283      68.878
  H     -278.143    -173.899      67.536

 6  7  8  9  10  11  12  13  14  15  25  28  32  33  34  35 0
 6-311+G(2d,p)
 ****
 36  37  40 0
 6-311+G(2d,p)
 ****
 1  2  3  4  5  16  17  18  19  20  21  22  23  24 0
 3-21G
 ****
 26  27  29  30  31  38  39 41  42  43  44  45  46  47  48 0
 3-21G
 ****


