%nproc=1
%NoSave
%Mem=1900MB
#P OB98/GEN NMR

erre ene a

0 1
  C      175.471     420.837     170.059
  O      175.518     419.485     169.572
  P      174.963     418.251     170.440
  C      175.933     416.160     171.600
  O      176.215     417.447     171.055
  C      177.197     415.493     172.162
  O      178.003     414.941     171.104
  C      178.114     416.436     172.940
  O      177.607     416.660     174.248
  C      179.435     415.678     172.882
  O      179.466     414.649     173.885
  C      179.384     415.063     171.480
  N      184.029     416.329     169.742
  C      183.633     415.492     170.728
  N      182.374     415.214     171.138
  C      181.473     415.880     170.387
  C      181.736     416.768     169.354
  C      183.086     416.991     169.032
  N      183.491     417.853     168.039
  N      180.559     417.274     168.843
  C      179.606     416.694     169.541
  N      180.111     415.844     170.487
  O      173.981     417.386     169.716
  O      174.290     418.927     171.723
  H      178.864     413.940     173.595
  H      173.574     418.351     172.062
  H      184.430     414.988     171.264
  H      178.538     416.849     169.400
  H      179.805     414.046     171.469
  H      180.300     416.329     173.053
  H      178.216     417.390     172.404
  H      176.876     414.666     172.805
  H      175.509     415.534     170.802
  H      184.481     417.980     167.893
  H      182.792     418.381     167.537
  H      175.184     416.275     172.391
  P      176.794     418.007     174.571
  C      177.355     420.406     175.271
  O      177.875     419.149     174.883
  O      175.703     417.870     175.579
  O      176.208     418.453     173.148
  H      175.375     418.935     173.274
  H      177.030     420.964     174.387
  H      178.154     420.974     175.770
  H      176.523     420.293     175.969
  H      175.890     421.495     169.326
  H      176.034     420.909     170.966
  H      174.455     421.113     170.247

 3  4  5  6  7  8  9  10  11  12  22  25  29  30  31  32 0
 6-311+G(2d,p)
 ****
 33  36  37 0
 6-311+G(2d,p)
 ****
 1  2  13  14  15  16  17  18  19  20  21  23  24  26 0
 3-21G
 ****
 27  28  34  35  38  39  40  41  42  43  44  45  46  47  48 0
 3-21G
 ****


