%nproc=1
%NoSave
%Mem=1900MB
#P OB98/GEN NMR

erre ene a

0 1
  C     -569.725    -574.144    -894.090
  O     -568.387    -574.131    -894.520
  P     -567.265    -573.739    -893.440
  C     -567.090    -575.997    -892.170
  O     -566.495    -575.109    -893.090
  C     -566.555    -577.427    -892.390
  O     -567.074    -577.991    -893.610
  C     -565.040    -577.496    -892.500
  O     -564.438    -577.404    -891.200
  C     -564.864    -578.878    -893.160
  O     -564.826    -579.919    -892.180
  C     -566.120    -578.978    -894.060
  N     -565.842    -578.867    -895.470
  C     -565.471    -580.038    -896.140
  O     -565.395    -581.107    -895.510
  N     -565.170    -579.982    -897.470
  C     -565.196    -578.839    -898.080
  N     -564.900    -578.818    -899.410
  C     -565.570    -577.548    -897.440
  C     -565.853    -577.622    -896.120
  O     -568.109    -573.452    -892.110
  O     -566.394    -572.597    -893.830
  H     -564.511    -580.724    -892.680
  H     -567.658    -572.831    -891.520
  H     -565.565    -576.616    -898.000
  H     -566.109    -576.740    -895.570
  H     -566.632    -579.956    -893.900
  H     -563.932    -578.929    -893.720
  H     -564.659    -576.721    -893.160
  H     -566.920    -578.074    -891.540
  H     -564.641    -579.724    -899.870
  H     -568.186    -576.037    -892.340
  H     -564.912    -578.004    -900.000
  H     -566.909    -575.672    -891.160
  P     -562.904    -576.977    -891.160
  C     -563.560    -574.600    -890.490
  O     -562.823    -575.769    -890.120
  O     -562.701    -576.247    -892.570
  O     -561.912    -578.091    -890.940
  H     -561.743    -576.045    -892.700
  H     -563.586    -573.929    -889.620
  H     -564.594    -574.852    -890.730
  H     -563.092    -574.104    -891.340
  H     -570.359    -574.420    -894.906
  H     -569.997    -573.170    -893.741
  H     -569.837    -574.852    -893.296

 3  4  5  6  7  8  9  10  11  12  13  21  23  27  28  29  30  32 0
 6-311+G(2d,p)
 ****
 34  35 0
 6-311+G(2d,p)
 ****
 1  2  14  15  16  17  18  19  20  22  24  25  26 0
 3-21G
 ****
 31  33  36  37  38  39  40  41  42  43  44  45  46 0
 3-21G
 ****


