%nproc=1
%NoSave
%Mem=1900MB
#P OB98/GEN NMR

erre ene a

0 1
  C      746.643     326.405     -52.934
  O      746.183     325.175     -53.457
  H      747.408     326.199     -52.179
  H      745.819     326.949     -52.456
  H      747.088     327.010     -53.727
  P      745.020     325.258     -54.559
  C      743.220     324.878     -52.732
  O      743.726     325.746     -53.745
  C      742.246     325.624     -51.825
  O      742.922     326.696     -51.138
  C      741.075     326.277     -52.557
  O      740.039     325.326     -52.787
  C      740.648     327.330     -51.551
  O      739.823     326.721     -50.530
  C      741.986     327.787     -50.944
  N      743.011     332.752     -50.169
  C      742.275     331.872     -49.461
  N      742.007     330.576     -49.751
  C      742.584     330.219     -50.914
  C      743.357     331.020     -51.745
  C      743.576     332.341     -51.328
  N      744.327     333.244     -52.058
  N      743.782     330.305     -52.845
  C      743.312     329.087     -52.653
  N      742.555     328.994     -51.512
  O      744.847     324.037     -55.407
  O      745.447     326.582     -55.357
  H      740.283     325.904     -50.252
  H      745.757     327.265     -54.739
  H      741.852     332.253     -48.538
  H      743.526     328.238     -53.289
  H      741.904     327.958     -49.860
  H      740.052     328.131     -52.002
  H      741.395     326.771     -53.485
  H      741.887     324.921     -51.059
  H      744.042     324.477     -52.134
  H      744.265     334.217     -51.789
  H      744.625     332.963     -52.980
  H      742.712     324.048     -53.234
  P      739.185     325.341     -54.142
  C      737.128     326.439     -53.058
  O      738.188     326.587     -53.990
  O      738.544     324.037     -54.481
  O      740.221     325.831     -55.259
  H      739.876     325.623     -56.144
  H      736.536     327.330     -53.047
  H      737.532     326.267     -52.082
  H      736.517     325.608     -53.342

 6  7  8  9  10  11  12  13  14  15  25  28  32  33  34  35 0
 6-311+G(2d,p)
 ****
 36  39  40 0
 6-311+G(2d,p)
 ****
 1  2  3  4  5  16  17  18  19  20  21  22  23  24 0
 3-21G
 ****
 26  27  29  30  31  37  38  41  42  43  44  45  46  47 0
 3-21G
 ****
 48 0
 3-21G
 ****


