%nproc=1
%NoSave
%Mem=1900MB
#P OB98/GEN NMR

erre ene a

0 1
  C     -345.842    -222.933     362.332
  O     -346.179    -223.432     361.048
  P     -347.129    -224.712     360.880
  C     -349.317    -223.432     361.319
  O     -348.402    -224.407     361.807
  C     -350.653    -224.090     360.987
  O     -350.427    -225.096     359.969
  C     -351.338    -224.829     362.135
  O     -352.118    -224.001     362.989
  C     -352.262    -225.760     361.362
  O     -353.421    -225.035     360.912
  C     -351.392    -226.162     360.167
  N     -351.832    -231.257     360.196
  C     -352.713    -230.274     359.904
  N     -352.525    -228.939     359.938
  C     -351.257    -228.652     360.281
  C     -350.248    -229.541     360.600
  C     -350.575    -230.908     360.551
  N     -349.668    -231.907     360.827
  N     -349.086    -228.867     360.921
  C     -349.391    -227.591     360.779
  N     -350.688    -227.411     360.385
  O     -346.454    -226.018     361.112
  O     -347.722    -224.573     359.402
  H     -353.952    -224.828     361.704
  H     -348.097    -225.426     359.109
  H     -353.705    -230.606     359.607
  H     -348.710    -226.774     360.954
  H     -351.966    -226.256     359.240
  H     -352.622    -226.598     361.964
  H     -350.622    -225.427     362.710
  H     -351.317    -223.326     360.564
  H     -348.895    -222.994     360.408
  H     -349.953    -232.855     360.638
  H     -348.695    -231.652     360.928
  H     -349.439    -222.640     362.058
  P     -352.549    -224.618     364.411
  C     -350.626    -223.412     365.717
  O     -351.215    -224.625     365.298
  O     -353.273    -225.916     364.330
  O     -353.415    -223.437     365.058
  H     -352.918    -222.634     365.284
  H     -349.833    -223.635     366.435
  H     -351.361    -222.766     366.200
  H     -350.187    -222.894     364.861
  H     -345.204    -222.081     362.227
  H     -345.334    -223.693     362.888
  H     -346.734    -222.649     362.850

 3  4  5  6  7  8  9  10  11  12  22  25  29  30  31  32 0
 6-311+G(2d,p)
 ****
 33  36  37 0
 6-311+G(2d,p)
 ****
 1  2  13  14  15  16  17  18  19  20  21  23  24  26 0
 3-21G
 ****
 27  28  34  35  38  39  40  41  42  43  44  45  46  47  48 0
 3-21G
 ****


