%nproc=1
%NoSave
%Mem=1900MB
#P OB98/GEN NMR

erre ene a

0 1
  C      647.849    -212.955     221.897
  O      647.568    -211.666     221.359
  P      647.971    -211.376     219.832
  C      649.962    -209.740     220.136
  O      648.596    -209.902     219.789
  C      650.361    -208.264     220.161
  O      650.427    -207.778     218.785
  C      649.400    -207.340     220.914
  O      650.177    -206.301     221.514
  C      648.537    -206.772     219.818
  O      647.881    -205.552     220.212
  C      649.579    -206.609     218.714
  N      648.964    -203.678     214.556
  C      649.655    -203.475     215.695
  N      649.773    -204.311     216.762
  C      649.076    -205.446     216.557
  C      648.299    -205.762     215.456
  C      648.251    -204.823     214.413
  N      647.556    -205.020     213.242
  N      647.709    -207.006     215.624
  C      648.116    -207.425     216.808
  N      648.974    -206.528     217.398
  O      646.551    -211.211     219.122
  O      648.790    -212.434     219.175
  H      647.445    -205.177     219.420
  H      646.387    -211.951     218.505
  H      650.195    -202.529     215.768
  H      647.840    -208.365     217.266
  H      650.194    -205.717     218.854
  H      647.754    -207.480     219.537
  H      648.810    -207.858     221.699
  H      651.374    -208.184     220.575
  H      650.575    -210.261     219.390
  H      647.686    -204.368     212.492
  H      647.183    -205.949     213.049
  H      650.141    -210.189     221.118
  P      649.758    -205.811     222.982
  C      648.022    -203.971     222.412
  O      649.335    -204.274     222.866
  O      651.165    -205.755     223.772
  O      648.775    -206.713     223.667
  H      651.009    -205.905     224.713
  H      647.672    -203.050     222.902
  H      647.314    -204.778     222.623
  H      648.044    -203.798     221.329
  H      647.525    -212.994     222.916
  H      648.902    -213.139     221.850
  H      647.331    -213.699     221.329

 3  4  5  6  7  8  9  10  11  12  22  25  29  30  31  32 0
 6-311+G(2d,p)
 ****
 33  36  37 0
 6-311+G(2d,p)
 ****
 1  2  13  14  15  16  17  18  19  20  21  23  24  26 0
 3-21G
 ****
 27  28  34  35  38  39  40  41  42  43  44  45  46  47  48 0
 3-21G
 ****


