%nproc=1
%NoSave
%Mem=1900MB
#P OB98/GEN NMR

erre ene a

0 1
  C     -170.624     258.591     -10.780
  O     -171.813     258.148     -10.150
  P     -173.067     257.617     -11.003
  C     -172.380     255.159     -10.583
  O     -172.632     256.171     -11.543
  C     -173.184     253.901     -10.913
  O     -172.727     252.820     -10.058
  C     -174.697     254.045     -10.709
  O     -175.339     253.259     -11.720
  C     -174.913     253.434      -9.339
  O     -176.252     253.008      -9.134
  C     -173.878     252.304      -9.361
  N     -173.521     251.846      -8.023
  C     -174.074     250.645      -7.578
  O     -174.855     250.009      -8.283
  N     -173.728     250.185      -6.331
  C     -172.968     250.902      -5.565
  N     -172.606     250.376      -4.364
  C     -172.450     252.227      -5.955
  C     -172.744     252.620      -7.190
  O     -173.550     258.554     -12.055
  O     -174.163     257.245      -9.904
  H     -176.297     252.539      -8.280
  H     -174.709     258.022      -9.625
  H     -171.843     252.801      -5.269
  H     -172.388     253.566      -7.571
  H     -174.252     251.461      -9.953
  H     -174.674     254.174      -8.568
  H     -175.037     255.082     -10.787
  H     -172.964     253.612     -11.949
  H     -172.835     249.399      -4.207
  H     -172.691     255.528      -9.602
  H     -171.784     250.709      -3.873
  H     -171.307     254.944     -10.546
  P     -176.826     253.666     -12.170
  C     -176.087     255.025     -14.253
  O     -176.736     255.034     -12.999
  O     -177.459     254.163     -10.779
  O     -177.667     252.577     -12.750
  H     -178.428     254.054     -10.816
  H     -176.128     256.034     -14.673
  H     -176.590     254.341     -14.942
  H     -175.039     254.735     -14.139
  H     -169.920     258.900     -10.036
  H     -170.848     259.416     -11.424
  H     -170.206     257.792     -11.356

 3  4  5  6  7  8  9  10  11  12  13  23  27  28  29  30  32 0
 6-311+G(2d,p)
 ****
 34  35 0
 6-311+G(2d,p)
 ****
 1  2  14  15  16  17  18  19  20  21  22  24  25  26 0
 3-21G
 ****
 31  33  36  37  38  39  40  41  42  43  44  45  46 0
 3-21G
 ****


