%nproc=1
%NoSave
%Mem=1900MB
#P OB98/GEN NMR

erre ene a

0 1
  C      987.276    -590.325     195.675
  O      986.167    -589.432     195.465
  P      985.159    -589.226     196.688
  C      983.112    -590.737     196.134
  O      984.313    -590.568     196.874
  C      982.056    -591.518     196.906
  O      981.731    -590.851     198.175
  C      980.718    -591.681     196.152
  O      980.175    -592.950     196.515
  C      979.848    -590.587     196.727
  O      978.460    -590.861     196.520
  C      980.307    -590.600     198.198
  N      979.991    -589.358     198.930
  C      979.666    -589.502     200.294
  O      979.621    -590.647     200.820
  N      979.412    -588.374     201.022
  C      979.383    -587.216     200.427
  N      979.106    -586.128     201.204
  C      979.636    -587.041     198.976
  C      979.942    -588.153     198.298
  O      984.080    -588.179     196.082
  O      985.804    -588.700     197.927
  H      978.247    -591.740     196.911
  H      983.948    -587.459     196.720
  H      979.588    -586.055     198.527
  H      980.132    -588.134     197.231
  H      979.836    -591.442     198.737
  H      980.092    -589.623     196.253
  H      980.831    -591.632     195.073
  H      982.459    -592.496     197.159
  H      978.940    -586.290     202.202
  H      983.316    -591.265     195.207
  H      979.044    -585.207     200.858
  H      982.739    -589.731     195.844
  P      980.425    -594.207     195.553
  C      978.437    -593.483     194.072
  O      979.848    -593.768     194.127
  O      979.305    -595.243     196.055
  O      981.767    -594.843     195.563
  H      979.388    -596.082     195.589
  H      978.208    -593.075     193.096
  H      978.163    -592.770     194.840
  H      977.868    -594.420     194.201
  H      987.869    -590.373     194.785
  H      986.908    -591.301     195.911
  H      987.876    -589.964     196.484

 3  4  5  6  7  8  9  10  11  12  13  21  23  27  28  29  30  32 0
 6-311+G(2d,p)
 ****
 34  35 0
 6-311+G(2d,p)
 ****
 1  2  14  15  16  17  18  19  20  22  24  25  26 0
 3-21G
 ****
 31  33  36  37  38  39  40  41  42  43  44  45  46 0
 3-21G
 ****


