%nproc=1
%NoSave
%Mem=1900MB
#P OB98/GEN NMR

erre ene a

0 1
  C      103.089     432.050     266.141
  O      102.190     432.085     265.036
  P      102.115     433.368     264.089
  C      101.759     435.938     264.500
  O      101.611     434.606     264.953
  C      101.813     436.878     265.711
  O      103.105     436.785     266.358
  C      101.590     438.328     265.312
  O      100.220     438.689     265.456
  C      102.515     439.083     266.250
  O      101.894     439.251     267.539
  C      103.706     438.110     266.354
  N      104.729     438.138     265.292
  C      105.645     439.190     265.233
  O      105.678     440.100     266.054
  N      106.522     439.159     264.177
  C      106.590     438.194     263.217
  O      107.192     438.292     262.154
  C      105.790     436.981     263.479
  C      104.898     437.018     264.471
  O      100.855     433.041     263.143
  O      103.351     433.656     263.296
  H      101.804     438.356     267.928
  H      101.161     432.690     262.286
  H      107.088     440.000     264.050
  H      105.916     436.133     262.829
  H      104.267     436.162     264.661
  H      104.232     438.228     267.309
  H      102.723     440.082     265.876
  H      101.924     438.497     264.272
  H      101.048     436.562     266.435
  H      100.927     436.203     263.839
  H      102.686     436.032     263.908
  P       99.716     440.117     264.957
  C      100.735     442.431     265.416
  O      100.403     441.178     265.963
  O       98.241     440.266     264.792
  O      100.503     440.333     263.577
  H       99.920     440.094     262.823
  H      101.017     443.108     266.225
  H       99.875     442.859     264.881
  H      101.576     442.330     264.728
  H      102.992     431.114     266.650
  H      102.857     432.848     266.815
  H      104.093     432.162     265.788

 3  4  5  6  7  8  9  10  11  12  13  23  28  29  30  31  32 0
 6-311+G(2d,p)
 ****
 33  34 0
 6-311+G(2d,p)
 ****
 1  2  14  15  16  17  18  19  20  21  22  24  25  26  27 0
 3-21G
 ****
 35  36  37  38  39  40  41  42  43  44  45 0
 3-21G
 ****


