%nproc=1
%NoSave
%Mem=1900MB
#P OB98/GEN NMR

erre ene a

0 1
  C      -15.097    -137.489     -77.986
  O      -15.515    -138.069     -76.767
  P      -15.556    -137.195     -75.426
  C      -13.707    -138.322     -74.044
  O      -15.108    -138.127     -74.202
  C      -13.422    -139.169     -72.805
  O      -13.846    -138.483     -71.604
  C      -14.157    -140.498     -72.781
  O      -13.608    -141.428     -73.696
  C      -14.018    -140.881     -71.313
  O      -12.730    -141.458     -71.055
  C      -14.138    -139.506     -70.621
  N      -15.446    -139.300     -70.016
  C      -15.604    -139.796     -68.717
  O      -14.702    -140.435     -68.178
  N      -16.792    -139.559     -68.068
  C      -17.771    -138.993     -68.700
  N      -18.900    -138.731     -67.989
  C      -17.694    -138.603     -70.123
  C      -16.507    -138.764     -70.706
  O      -16.819    -136.431     -75.203
  O      -14.312    -136.195     -75.580
  H      -14.617    -135.284     -75.403
  H      -12.716    -142.321     -71.515
  H      -18.561    -138.198     -70.624
  H      -16.352    -138.485     -71.742
  H      -13.370    -139.401     -69.847
  H      -14.770    -141.613     -70.999
  H      -15.217    -140.338     -73.015
  H      -12.337    -139.327     -72.745
  H      -18.908    -138.995     -67.011
  H      -13.227    -137.344     -73.941
  H      -19.573    -138.025     -68.276
  H      -13.307    -138.807     -74.941
  P      -14.590    -141.998     -74.828
  C      -13.453    -144.279     -74.364
  O      -13.985    -143.393     -75.331
  O      -14.344    -141.009     -76.064
  O      -16.033    -142.032     -74.441
  H      -15.182    -140.864     -76.540
  H      -13.412    -145.282     -74.796
  H      -14.071    -144.305     -73.462
  H      -12.438    -143.967     -74.105
  H      -15.137    -138.224     -78.763
  H      -14.094    -137.131     -77.885
  H      -15.744    -136.673     -78.233

 3  4  5  6  7  8  9  10  11  12  13  24  27  28  29  30  32 0
 6-311+G(2d,p)
 ****
 34  35 0
 6-311+G(2d,p)
 ****
 1  2  14  15  16  17  18  19  20  21  22  23  25  26 0
 3-21G
 ****
 31  33  36  37  38  39  40  41  42  43  44  45  46 0
 3-21G
 ****


