%nproc=1
%NoSave
%Mem=1900MB
#P OB98/GEN NMR

erre ene a

0 1
  C        2.510       6.033     -11.600
  O        3.664       5.568     -12.264
  H        2.729       6.106     -10.531
  H        1.692       5.323     -11.743
  H        2.209       7.018     -11.964
  P        3.780       5.782     -13.845
  C        4.050       7.804     -15.424
  O        3.644       7.355     -14.138
  C        3.271       9.043     -15.868
  O        1.854       8.765     -15.874
  C        3.466      10.223     -14.916
  O        4.625      11.002     -15.147
  C        2.201      11.038     -15.167
  O        2.370      11.913     -16.295
  C        1.159       9.960     -15.475
  N       -3.474      10.460     -13.384
  C       -2.991      10.990     -14.564
  N       -3.832      11.804     -15.241
  N       -1.790      10.756     -15.021
  C       -1.030      10.004     -14.190
  C       -1.394       9.435     -12.991
  C       -2.746       9.655     -12.520
  O       -3.220       9.214     -11.478
  N       -0.353       8.733     -12.431
  C        0.656       8.941     -13.252
  N        0.287       9.684     -14.348
  O        2.393       5.205     -14.406
  O        4.947       5.107     -14.499
  H        3.028      12.591     -16.061
  H        2.506       4.903     -15.325
  H       -4.417      10.651     -13.095
  H        1.660       8.556     -13.115
  H        0.517      10.251     -16.316
  H        1.951      11.671     -14.311
  H       -4.720      12.105     -14.871
  H        3.453       9.881     -13.877
  H       -3.432      12.414     -15.955
  H        3.556       9.299     -16.895
  H        3.867       6.981     -16.117
  H        5.125       8.004     -15.434
  P        5.334      11.765     -13.931
  C        6.544      10.939     -11.780
  O        5.583      10.679     -12.779
  O        4.154      12.675     -13.348
  O        6.526      12.574     -14.306
  H        4.214      13.578     -13.713
  H        6.580      10.116     -11.097
  H        6.276      11.830     -11.251
  H        7.504      11.069     -12.234

 6  7  8  9  10  11  12  13  14  15  26  29  33  34 0
 6-311+G(2d,p)
 ****
 36  38  39  40  41 0
 6-311+G(2d,p)
 ****
 1  2  3  4  5  16  17  18  19  20  21  22  23  24  25 0
 3-21G
 ****
 27  28  30  31  32  35  37  42  43  44  45  46  47 0
 3-21G
 ****
 48  49 0
 3-21G
 ****


