%nproc=1
%NoSave
%Mem=1900MB
#P OB98/GEN NMR

erre ene a

0 1
  C      -59.627    -477.113      31.487
  O      -60.726    -477.615      32.214
  P      -60.719    -479.098      32.818
  C      -61.802    -477.956      34.859
  O      -61.781    -479.113      34.027
  C      -62.829    -478.133      35.984
  O      -64.171    -478.050      35.415
  C      -62.699    -479.495      36.702
  O      -62.589    -479.406      38.124
  C      -63.908    -480.261      36.188
  O      -64.298    -481.340      37.013
  C      -64.930    -479.132      35.994
  N      -66.056    -479.536      35.157
  C      -67.079    -480.253      35.771
  O      -67.100    -480.554      36.958
  N      -68.087    -480.679      34.947
  C      -68.110    -480.574      33.591
  O      -68.997    -481.069      32.908
  C      -66.985    -479.842      32.993
  C      -66.034    -479.343      33.788
  O      -59.374    -479.635      33.175
  O      -61.483    -479.949      31.697
  H      -64.920    -481.896      36.504
  H      -62.392    -479.660      31.513
  H      -68.832    -481.202      35.383
  H      -66.973    -479.749      31.916
  H      -65.189    -478.800      33.375
  H      -65.320    -478.779      36.946
  H      -63.644    -480.685      35.212
  H      -61.784    -480.012      36.397
  H      -62.697    -477.304      36.688
  H      -62.085    -477.093      34.254
  H      -60.799    -477.768      35.260
  P      -61.556    -480.233      39.020
  C      -59.521    -478.673      39.466
  O      -60.745    -479.200      39.935
  O      -60.709    -481.212      38.276
  O      -62.498    -480.991      40.071
  H      -62.078    -481.827      40.348
  H      -58.892    -478.434      40.325
  H      -59.717    -477.752      38.905
  H      -58.997    -479.388      38.824
  H      -59.834    -476.111      31.175
  H      -59.458    -477.727      30.627
  H      -58.755    -477.121      32.108

 3  4  5  6  7  8  9  10  11  12  13  23  28  29  30  31  32 0
 6-311+G(2d,p)
 ****
 33  34 0
 6-311+G(2d,p)
 ****
 1  2  14  15  16  17  18  19  20  21  22  24  25  26  27 0
 3-21G
 ****
 35  36  37  38  39  40  41  42  43  44  45 0
 3-21G
 ****


