%nproc=1
%NoSave
%Mem=1900MB
#P OB98/GEN NMR

erre ene a

0 1
  C      -77.218     165.316     -88.433
  O      -77.294     163.902     -88.343
  P      -77.406     163.070     -89.710
  C      -79.992     163.000     -89.720
  O      -78.815     163.466     -90.369
  C      -80.838     162.158     -90.669
  O      -81.292     162.999     -91.765
  C      -80.097     160.959     -91.281
  O      -80.957     159.810     -91.261
  C      -79.906     161.363     -92.733
  O      -79.780     160.235     -93.591
  C      -81.166     162.198     -92.958
  N      -83.974     164.052     -96.724
  C      -84.367     163.448     -95.548
  N      -85.696     163.261     -95.380
  N      -83.535     163.056     -94.618
  C      -82.240     163.336     -94.907
  C      -81.728     163.937     -96.033
  C      -82.656     164.309     -97.080
  O      -82.363     164.768     -98.181
  N      -80.363     164.062     -95.955
  C      -80.050     163.534     -94.788
  N      -81.148     163.035     -94.135
  O      -77.630     161.571     -89.199
  O      -76.222     163.163     -90.611
  H      -79.382     160.552     -94.424
  H      -76.944     160.988     -89.576
  H      -84.654     164.318     -97.414
  H      -79.044     163.463     -94.390
  H      -82.048     161.547     -93.026
  H      -78.999     161.972     -92.821
  H      -86.393     163.572     -96.036
  H      -79.148     160.719     -90.791
  H      -86.004     162.841     -94.511
  H      -81.736     161.825     -90.131
  H      -80.579     163.860     -89.381
  H      -79.700     162.406     -88.848
  P      -80.300     158.450     -90.722
  C      -79.587     157.942     -93.177
  O      -79.209     158.030     -91.818
  O      -81.468     157.372     -90.914
  O      -79.817     158.525     -89.311
  H      -81.348     156.625     -90.298
  H      -80.590     158.340     -93.352
  H      -79.566     156.895     -93.485
  H      -78.873     158.507     -93.781
  H      -77.148     165.733     -87.450
  H      -78.096     165.690     -88.917
  H      -76.353     165.591     -89.000

 3  4  5  6  7  8  9  10  11  12  23  26  30  31  33  0
 6-311+G(2d,p)
 ****
 35  36  37  38 0
 6-311+G(2d,p)
 ****
 1  2  13  14  15  16  17  18  19  20  21  22  24  25  27  28  29 0
 3-21G
 ****
 32  34  39  40  41  42  43  44  45  46  47  48  49 0
 3-21G
 ****


