%nproc=1
%NoSave
%Mem=1900MB
#P OB98/GEN NMR

erre ene a

0 1
  C     -112.880    -885.465    -236.133
  O     -112.103    -886.621    -236.389
  P     -112.353    -887.897    -235.441
  C     -112.675    -889.856    -237.132
  O     -113.280    -888.900    -236.281
  C     -113.171    -889.663    -238.570
  O     -112.953    -888.298    -238.994
  C     -112.482    -890.545    -239.600
  O     -113.052    -891.842    -239.609
  C     -112.720    -889.760    -240.882
  O     -114.043    -890.007    -241.403
  C     -112.586    -888.309    -240.397
  N     -109.688    -884.239    -239.585
  C     -111.049    -884.407    -239.435
  N     -111.733    -883.345    -238.958
  N     -111.689    -885.509    -239.721
  C     -110.881    -886.480    -240.205
  C     -109.519    -886.438    -240.419
  C     -108.820    -885.228    -240.043
  O     -107.600    -885.069    -240.063
  N     -109.054    -887.616    -240.937
  C     -110.122    -888.382    -241.015
  N     -111.252    -887.748    -240.562
  O     -113.329    -887.323    -234.312
  O     -111.121    -888.525    -234.878
  H     -114.182    -890.964    -241.487
  H     -112.820    -887.094    -233.505
  H     -109.248    -883.379    -239.326
  H     -110.130    -889.400    -241.369
  H     -113.279    -887.635    -240.916
  H     -112.020    -890.040    -241.668
  H     -111.318    -882.454    -238.733
  H     -111.408    -890.600    -239.398
  H     -112.734    -883.443    -238.837
  H     -114.256    -889.837    -238.574
  H     -112.951    -890.865    -236.796
  H     -111.586    -889.756    -237.086
  P     -112.085    -893.080    -239.925
  C     -113.398    -894.901    -238.612
  O     -112.219    -894.113    -238.711
  O     -110.618    -892.463    -239.735
  O     -112.252    -893.669    -241.287
  H     -110.012    -892.852    -240.391
  H     -113.146    -895.839    -238.126
  H     -113.825    -895.106    -239.596
  H     -114.134    -894.368    -238.002
  H     -112.616    -884.697    -236.829
  H     -112.693    -885.123    -235.137
  H     -113.918    -885.702    -236.239

 3  4  5  6  7  8  9  10  11  12  23  26  30  31 0
 6-311+G(2d,p)
 ****
 33  35  36  37  38 0
 6-311+G(2d,p)
 ****
 1  2  13  14  15  16  17  18  19  20  21  22  24  25 0
 3-21G
 ****
 27  28  29  32  34  39  40  41  42  43  44  45  46  47  48  49 0
 3-21G
 ****


