%nproc=1
%NoSave
%Mem=1900MB
#P OB98/GEN NMR

erre ene a

0 1
  C     -172.199     -94.604    -117.075
  O     -172.079     -96.012    -117.122
  P     -170.655     -96.715    -117.317
  C     -170.340     -98.068    -115.164
  O     -170.683     -98.117    -116.541
  C     -170.239     -99.471    -114.563
  O     -171.569    -100.031    -114.419
  C     -169.403    -100.451    -115.401
  O     -168.671    -101.274    -114.485
  C     -170.458    -101.266    -116.124
  O     -169.966    -102.526    -116.555
  C     -171.557    -101.324    -115.057
  N     -172.858    -101.652    -115.615
  C     -173.229    -103.000    -115.606
  O     -172.419    -103.861    -115.260
  N     -174.502    -103.333    -116.001
  C     -175.261    -102.427    -116.538
  N     -176.537    -102.783    -116.852
  C     -174.805    -101.045    -116.793
  C     -173.625    -100.717    -116.273
  O     -169.476     -95.856    -117.000
  O     -170.642     -97.156    -118.858
  H     -169.836     -96.806    -119.283
  H     -169.245    -102.381    -117.206
  H     -175.426    -100.363    -117.355
  H     -173.215     -99.720    -116.380
  H     -171.306    -102.063    -114.286
  H     -170.807    -100.717    -117.005
  H     -168.704     -99.946    -116.073
  H     -169.811     -99.380    -113.557
  H     -176.825    -103.727    -116.626
  H     -171.120     -97.513    -114.637
  H     -177.277    -102.092    -116.969
  H     -169.399     -97.523    -115.033
  P     -167.184    -101.724    -114.889
  C     -166.356    -102.801    -112.678
  O     -166.799    -103.004    -114.003
  O     -166.300    -100.568    -114.204
  O     -166.879    -101.795    -116.350
  H     -165.455    -100.490    -114.682
  H     -166.077    -103.771    -112.252
  H     -167.156    -102.371    -112.069
  H     -165.479    -102.147    -112.660
  H     -173.227     -94.338    -116.940
  H     -171.840     -94.185    -117.991
  H     -171.622     -94.224    -116.258

 3  4  5  6  7  8  9  10  11  12  13  24  27  28  29  30  32 0
 6-311+G(2d,p)
 ****
 34  35 0
 6-311+G(2d,p)
 ****
 1  2  14  15  16  17  18  19  20  21  22  23  25  26 0
 3-21G
 ****
 31  33  36  37  38  39  40  41  42  43  44  45  46 0
 3-21G
 ****


