%nproc=1
%NoSave
%Mem=1900MB
#P OB98/GEN NMR

erre ene a

0 1
  C     -294.694    -506.458     576.432
  O     -294.489    -505.227     575.732
  P     -294.404    -503.885     576.605
  C     -296.782    -503.604     577.609
  O     -295.436    -504.000     577.828
  C     -297.713    -504.148     578.701
  O     -297.296    -503.685     580.015
  C     -299.173    -503.728     578.526
  O     -300.009    -504.754     579.069
  C     -299.275    -502.505     579.421
  O     -300.628    -502.199     579.748
  C     -298.391    -502.943     580.589
  N     -299.773    -499.170     583.636
  C     -300.542    -500.115     582.979
  N     -301.875    -500.061     583.195
  N     -300.051    -501.024     582.182
  C     -298.698    -500.974     582.089
  C     -297.830    -500.091     582.684
  C     -298.391    -499.072     583.542
  O     -297.760    -498.203     584.138
  N     -296.529    -500.350     582.324
  C     -296.620    -501.384     581.515
  N     -297.906    -501.822     581.368
  O     -295.085    -502.792     575.644
  O     -293.013    -503.487     576.971
  H     -301.050    -503.032     580.053
  H     -294.405    -502.192     575.298
  H     -300.205    -498.485     584.231
  H     -295.783    -501.854     581.005
  H     -298.928    -503.605     581.281
  H     -298.840    -501.633     578.908
  H     -302.314    -499.416     583.838
  H     -299.474    -503.521     577.496
  H     -302.460    -500.764     582.763
  H     -297.640    -505.242     578.706
  H     -297.122    -503.956     576.632
  H     -296.824    -502.511     577.559
  P     -300.623    -505.812     578.030
  C     -302.222    -503.916     577.257
  O     -301.329    -504.954     576.883
  O     -301.854    -506.456     578.830
  O     -299.662    -506.851     577.557
  H     -302.052    -507.343     578.489
  H     -301.722    -502.953     577.144
  H     -302.562    -504.025     578.294
  H     -303.095    -503.952     576.601
  H     -294.730    -507.265     575.731
  H     -295.617    -506.412     576.971
  H     -293.888    -506.617     577.118

 3  4  5  6  7  8  9  10  11  12  23  26  30  31 0
 6-311+G(2d,p)
 ****
 33  35  36  37  38 0
 6-311+G(2d,p)
 ****
 1  2  13  14  15  16  17  18  19  20  21  22  24  25 0
 3-21G
 ****
 27  28  29  32  34  39  40  41  42  43  44  45  46  47  48  49 0
 3-21G
 ****


