%nproc=1
%NoSave
%Mem=1900MB
#P OB98/GEN NMR

erre ene a

0 1
  C      388.320     -20.969     -27.883
  O      389.433     -21.067     -26.992
  P      389.182     -20.823     -25.426
  C      388.737     -18.832     -23.845
  O      389.078     -19.243     -25.163
  C      389.354     -17.457     -23.526
  O      390.793     -17.537     -23.695
  C      388.888     -16.315     -24.436
  O      387.728     -15.579     -24.066
  C      390.068     -15.348     -24.325
  O      389.930     -14.543     -23.137
  C      391.277     -16.268     -24.181
  N      394.577     -14.137     -27.469
  C      394.052     -13.697     -26.302
  N      393.178     -14.327     -25.489
  C      392.860     -15.539     -25.976
  C      393.318     -16.121     -27.148
  C      394.218     -15.364     -27.918
  N      394.744     -15.806     -29.113
  N      392.764     -17.371     -27.321
  C      391.967     -17.535     -26.279
  N      392.003     -16.460     -25.429
  O      390.077     -21.571     -24.499
  O      387.655     -21.293     -25.246
  H      389.127     -14.003     -23.259
  H      387.564     -21.743     -24.382
  H      394.374     -12.709     -25.980
  H      391.354     -18.407     -26.099
  H      392.004     -15.891     -23.450
  H      390.119     -14.652     -25.168
  H      388.791     -16.659     -25.477
  H      389.145     -17.205     -22.475
  H      389.096     -19.570     -23.124
  H      395.349     -15.179     -29.622
  H      394.440     -16.690     -29.489
  H      387.644     -18.829     -23.771
  P      386.381     -15.661     -24.929
  C      385.639     -14.491     -27.155
  O      386.690     -14.878     -26.293
  O      385.146     -15.206     -24.224
  O      386.351     -17.194     -25.393
  H      387.047     -17.432     -26.029
  H      386.035     -13.796     -27.900
  H      384.841     -13.995     -26.593
  H      385.242     -15.375     -27.668
  H      388.647     -21.156     -28.884
  H      387.900     -19.987     -27.823
  H      387.579     -21.691     -27.609

 3  4  5  6  7  8  9  10  11  12  22  25  29  30  31  32 0
 6-311+G(2d,p)
 ****
 33  36  37 0
 6-311+G(2d,p)
 ****
 1  2  13  14  15  16  17  18  19  20  21  23  24  26 0
 3-21G
 ****
 27  28  34  35  38  39  40  41  42  43  44  45  46  47  48 0
 3-21G
 ****


