%nproc=1
%NoSave
%Mem=1900MB
#P OB98/GEN NMR

erre ene a

0 1
  C      -97.487      89.602      83.640
  O      -97.201      89.550      85.025
  P      -96.560      90.852      85.720
  C      -98.882      91.680      86.645
  O      -97.742      91.931      85.843
  C      -99.142      92.854      87.593
  O      -99.490      94.029      86.805
  C     -100.282      92.626      88.599
  O      -99.913      93.289      89.818
  C     -101.464      93.321      87.940
  O     -102.477      93.675      88.876
  C     -100.754      94.525      87.299
  N     -101.525      95.131      86.213
  C     -102.545      96.019      86.555
  O     -102.847      96.302      87.711
  N     -103.244      96.564      85.501
  C     -103.069      96.261      84.180
  O     -103.734      96.763      83.276
  C     -102.013      95.282      83.880
  C     -101.295      94.779      84.889
  O      -95.639      91.412      84.542
  O      -95.847      90.563      86.998
  H      -96.029      91.284      83.657
  H     -102.045      94.130      89.625
  H     -103.961      97.237      85.720
  H     -101.856      95.006      82.843
  H     -100.511      94.056      84.694
  H     -100.529      95.284      88.056
  H     -101.896      92.662      87.190
  H     -100.449      91.562      88.794
  H      -98.206      93.086      88.121
  H      -98.712      90.775      87.242
  H      -99.752      91.501      86.000
  P     -100.551      92.763      91.201
  C      -98.300      91.830      92.158
  O      -99.619      91.577      91.734
  O     -101.838      91.985      90.634
  O     -100.916      93.832      92.179
  H     -101.626      91.385      89.899
  H      -97.960      90.998      92.787
  H      -98.237      92.753      92.745
  H      -97.643      91.909      91.287
  H      -97.906      88.668      83.327
  H      -96.585      89.788      83.096
  H      -98.187      90.389      83.450

 3  4  5  6  7  8  9  10  11  12  13  24  28  29  30  31  32 0
 6-311+G(2d,p)
 ****
 33  34 0
 6-311+G(2d,p)
 ****
 1  2  14  15  16  17  18  19  20  21  22  23  25  26  27 0
 3-21G
 ****
 35  36  37  38  39  40  41  42  43  44  45 0
 3-21G
 ****


