%nproc=1
%NoSave
%Mem=1900MB
#P OB98/GEN NMR

erre ene a

0 1
  C       68.681     439.991     207.545
  O       67.467     440.200     208.279
  P       67.215     441.657     208.897
  C       65.132     442.813     210.003
  O       65.716     441.632     209.465
  C       63.649     442.584     210.272
  O       62.942     442.287     209.041
  C       63.353     441.413     211.203
  O       63.658     441.735     212.556
  C       61.876     441.182     210.917
  O       61.069     442.124     211.649
  C       61.793     441.483     209.400
  N       61.708     440.279     208.585
  C       60.502     439.579     208.649
  O       59.561     439.931     209.364
  N       60.420     438.453     207.869
  C       61.415     437.948     207.084
  O       61.278     436.939     206.404
  C       62.680     438.696     207.098
  C       62.772     439.811     207.836
  O       67.121     442.548     207.564
  O       68.272     442.072     209.865
  H       66.698     442.078     206.826
  H       60.139     441.877     211.484
  H       59.549     437.944     207.890
  H       63.504     438.311     206.503
  H       63.698     440.374     207.861
  H       60.906     442.101     209.183
  H       61.544     440.176     211.202
  H       63.930     440.536     210.894
  H       63.228     443.512     210.695
  H       65.248     443.635     209.293
  H       65.662     443.090     210.917
  P       64.896     440.956     213.225
  C       67.138     441.939     214.155
  O       65.736     442.051     214.044
  O       65.798     440.648     211.937
  O       64.487     439.739     213.993
  H       65.878     441.415     211.337
  H       67.544     442.912     214.425
  H       67.585     441.614     213.209
  H       67.387     441.215     214.941
  H       68.716     438.981     207.193
  H       69.520     440.176     208.183
  H       68.713     440.660     206.711

 3  4  5  6  7  8  9  10  11  12  13  24  28  29  30  31  32 0
 6-311+G(2d,p)
 ****
 33  34 0
 6-311+G(2d,p)
 ****
 1  2  14  15  16  17  18  19  20  21  22  23  25  26  27 0
 3-21G
 ****
 35  36  37  38  39  40  41  42  43  44  45 0
 3-21G
 ****


