%nproc=1
%NoSave
%Mem=1900MB
#P OB98/GEN NMR

erre ene a

0 1
  C     -399.673     234.189     135.195
  O     -400.782     233.596     134.531
  P     -400.893     232.004     134.592
  C     -403.010     232.170     136.120
  O     -402.419     231.647     134.935
  C     -404.521     231.933     136.095
  O     -405.137     232.719     135.061
  C     -404.915     230.482     135.812
  O     -404.769     229.672     136.967
  C     -406.352     230.647     135.334
  O     -407.248     230.719     136.464
  C     -406.300     231.993     134.588
  N     -406.287     231.829     133.151
  C     -407.206     230.922     132.617
  O     -407.978     230.268     133.341
  N     -407.181     230.739     131.273
  C     -406.318     231.346     130.399
  O     -406.333     231.115     129.194
  C     -405.364     232.275     130.991
  C     -405.380     232.469     132.305
  O     -400.110     231.600     135.929
  O     -400.348     231.288     133.390
  H     -408.111     230.994     136.111
  H     -399.641     230.750     135.801
  H     -407.860     230.108     130.874
  H     -404.657     232.765     130.328
  H     -404.660     233.143     132.787
  H     -407.167     232.614     134.869
  H     -406.681     229.806     134.715
  H     -404.300     230.103     134.971
  H     -404.919     232.249     137.066
  H     -402.797     233.225     136.194
  H     -402.555     231.664     136.984
  P     -405.574     228.270     136.967
  C     -403.327     226.990     137.193
  O     -404.596     227.244     137.728
  O     -405.499     227.872     135.423
  O     -406.954     228.403     137.522
  H     -404.688     228.193     135.003
  H     -402.880     227.864     136.720
  H     -403.394     226.171     136.444
  H     -402.652     226.646     138.002
  H     -399.715     235.252     135.080
  H     -398.763     233.820     134.769
  H     -399.706     233.942     136.235

 3  4  5  6  7  8  9  10  11  12  13  23  28  29  30  31  32 0
 6-311+G(2d,p)
 ****
 33  34 0
 6-311+G(2d,p)
 ****
 1  2  14  15  16  17  18  19  20  21  22  24  25  26 0
 3-21G
 ****
 27  35  36  37  38  39  40  41  42  43  44  45 0
 3-21G
 ****


