%nproc=1
%NoSave
%Mem=1900MB
#P OB98/GEN NMR

erre ene a

0 1
  C       81.524      69.230    -395.403
  O       81.439      67.832    -395.220
  H       82.548      69.482    -395.692
  H       81.289      69.735    -394.463
  H       80.844      69.574    -396.186
  P       79.999      67.139    -395.246
  C       78.010      66.871    -393.620
  O       79.208      67.579    -393.917
  C       77.921      66.512    -392.137
  O       77.993      67.715    -391.340
  C       76.602      65.821    -391.777
  O       76.607      64.414    -391.956
  C       76.445      66.189    -390.305
  O       77.104      65.233    -389.455
  C       77.129      67.553    -390.206
  N       74.670      70.956    -387.284
  C       75.434      69.870    -386.893
  N       75.517      69.652    -385.563
  N       76.037      69.076    -387.741
  C       75.781      69.363    -389.036
  C       75.026      70.400    -389.542
  C       74.419      71.319    -388.600
  O       73.752      72.304    -388.892
  N       74.953      70.351    -390.912
  C       75.593      69.239    -391.225
  N       76.179      68.653    -390.128
  O       80.324      65.594    -394.956
  O       79.234      67.288    -396.526
  H       76.701      64.357    -389.618
  H       79.670      65.032    -395.413
  H       74.254      71.547    -386.588
  H       75.701      68.845    -392.229
  H       77.762      67.621    -389.310
  H       75.390      66.192    -390.016
  H       75.006      70.177    -384.877
  H       75.771      66.266    -392.330
  H       75.907      68.759    -385.248
  H       78.786      65.891    -391.861
  H       78.029      65.961    -394.224
  H       77.137      67.452    -393.926
  P       75.238      63.601    -392.102
  C       72.926      63.687    -390.864
  O       74.314      63.934    -390.849
  O       75.688      62.088    -391.840
  O       74.537      63.759    -393.412
  H       75.808      61.613    -392.684
  H       72.501      63.982    -389.927
  H       72.751      62.643    -391.022
  H       72.472      64.248    -391.654

 6  7  8  9  10  11  12  13  14  15  26  29  33  34 0
 6-311+G(2d,p)
 ****
 36  38  39  40  41 0
 6-311+G(2d,p)
 ****
 1  2  3  4  5  16  17  18  19  20  21  22  23  24  25 0
 3-21G
 ****
 27  28  30  31  32  35  37  42  43  44  45  46  47 0
 3-21G
 ****
 48  49 0
 3-21G
 ****


