%nproc=1
%NoSave
%Mem=1900MB
#P OB98/GEN NMR

erre ene a

0 1
  C       62.291    -299.369     -93.197
  O       62.786    -300.206     -92.172
  H       62.989    -298.541     -93.338
  H       61.314    -298.961     -92.925
  H       62.215    -299.924     -94.138
  P       61.880    -301.441     -91.691
  C       63.333    -303.325     -92.723
  O       62.131    -302.573     -92.808
  C       63.036    -304.741     -92.235
  O       61.965    -305.339     -92.994
  C       64.198    -305.722     -92.369
  O       65.222    -305.519     -91.408
  C       63.459    -307.035     -92.163
  O       63.169    -307.211     -90.766
  C       62.163    -306.780     -92.972
  N       62.227    -307.310     -94.333
  C       61.969    -308.678     -94.488
  O       61.706    -309.378     -93.511
  N       62.054    -309.229     -95.746
  C       62.384    -308.485     -96.755
  N       62.499    -309.091     -97.971
  C       62.647    -307.037     -96.639
  C       62.556    -306.521     -95.418
  O       60.446    -301.135     -91.402
  O       62.667    -302.049     -90.436
  H       62.929    -308.147     -90.640
  H       62.139    -302.811     -90.093
  H       62.926    -306.466     -97.514
  H       62.752    -305.468     -95.250
  H       61.295    -307.218     -92.463
  H       64.033    -307.908     -92.489
  H       64.606    -305.706     -93.385
  H       62.690    -304.669     -91.194
  H       62.354    -310.094     -98.002
  H       64.012    -302.806     -92.036
  H       63.012    -308.658     -98.731
  H       63.806    -303.390     -93.707
  P       66.726    -305.889     -91.828
  C       67.255    -303.734     -93.196
  O       67.020    -305.132     -93.214
  O       66.616    -307.426     -92.249
  O       67.768    -305.658     -90.775
  H       66.832    -308.016     -91.504
  H       67.433    -303.389     -94.193
  H       68.110    -303.524     -92.588
  H       66.399    -303.234     -92.793

 6  7  8  9  10  11  12  13  14  15  16  26  30  31  32  33  35 0
 6-311+G(2d,p)
 ****
 37  38 0
 6-311+G(2d,p)
 ****
 1  2  3  4  5  17  18  19  20  21  22  23  24  25 0
 3-21G
 ****
 27  28  29  34  36  39  40  41  42  43  44  45  46 0
 3-21G
 ****


