%nproc=1
%NoSave
%Mem=1900MB
#P OB98/GEN NMR

erre ene a

0 1
  C     -234.554      12.879     185.475
  O     -233.869      12.053     186.416
  P     -234.674      10.857     187.114
  C     -233.610       8.713     186.150
  O     -234.717       9.608     186.105
  C     -232.811       8.767     184.841
  O     -232.227      10.089     184.701
  C     -231.637       7.787     184.753
  O     -231.885       6.483     184.235
  C     -230.732       8.492     183.749
  O     -231.167       8.189     182.406
  C     -230.954       9.970     184.036
  N     -226.030      11.351     184.184
  C     -226.780      10.808     183.203
  N     -228.088      10.469     183.244
  C     -228.618      10.763     184.450
  C     -227.967      11.319     185.537
  C     -226.608      11.624     185.375
  N     -225.836      12.169     186.369
  N     -228.838      11.464     186.595
  C     -229.986      10.982     186.162
  N     -229.908      10.554     184.869
  O     -235.980      11.227     187.737
  O     -233.638      10.353     188.230
  H     -231.283       7.221     182.362
  H     -234.134      10.100     189.035
  H     -226.276      10.618     182.263
  H     -230.890      10.921     186.745
  H     -231.007      10.573     183.121
  H     -229.694       8.158     183.817
  H     -231.125       7.705     185.719
  H     -233.494       8.604     183.994
  H     -233.978       7.691     186.317
  H     -224.854      12.311     186.187
  H     -226.239      12.319     187.284
  H     -233.011       8.977     187.022
  P     -231.876       5.191     185.185
  C     -234.236       4.368     184.406
  O     -233.420       4.843     185.449
  O     -231.043       5.318     186.413
  O     -231.416       4.029     184.189
  H     -232.064       3.810     183.497
  H     -235.170       3.987     184.836
  H     -233.747       3.550     183.865
  H     -234.464       5.178     183.718
  H     -233.884      13.625     185.101
  H     -235.385      13.353     185.955
  H     -234.907      12.278     184.663

 3  4  5  6  7  8  9  10  11  12  22  25  29  30  31  32 0
 6-311+G(2d,p)
 ****
 33  36  37 0
 6-311+G(2d,p)
 ****
 1  2  13  14  15  16  17  18  19  20  21  23  24  26 0
 3-21G
 ****
 27  28  34  35  38  39  40  41  42  43  44  45  46  47  48 0
 3-21G
 ****


