%nproc=1
%NoSave
%Mem=1900MB
#P OB98/GEN NMR

erre ene a

0 1
  C      -21.367     195.041    -571.411
  O      -22.078     194.206    -570.521
  H      -21.701     194.837    -572.432
  H      -20.300     194.817    -571.343
  H      -21.541     196.096    -571.186
  P      -22.049     194.596    -568.967
  C      -24.460     195.477    -569.360
  O      -23.197     195.698    -568.747
  C      -25.526     196.363    -568.719
  O      -25.911     195.776    -567.441
  C      -25.066     197.807    -568.450
  O      -26.169     198.693    -568.677
  C      -24.767     197.791    -566.962
  O      -24.835     199.089    -566.382
  C      -25.845     196.834    -566.465
  N      -25.869     198.117    -561.616
  C      -26.412     198.752    -562.715
  N      -27.004     199.946    -562.503
  N      -26.375     198.259    -563.923
  C      -25.770     197.049    -563.992
  C      -25.190     196.319    -562.983
  C      -25.221     196.884    -561.650
  O      -24.739     196.380    -560.643
  N      -24.625     195.167    -563.472
  C      -24.849     195.212    -564.775
  N      -25.538     196.335    -565.138
  O      -20.691     195.436    -568.842
  O      -22.080     193.446    -568.019
  H      -25.730     199.450    -566.543
  H      -19.965     194.852    -568.556
  H      -25.908     198.549    -560.708
  H      -24.517     194.476    -565.492
  H      -26.834     197.309    -566.407
  H      -23.765     197.383    -566.784
  H      -27.101     200.378    -561.596
  H      -24.211     198.120    -569.054
  H      -27.443     200.404    -563.294
  H      -26.418     196.355    -569.356
  H      -24.743     194.428    -569.230
  H      -24.381     195.689    -570.431
  P      -25.851     200.174    -569.197
  C      -26.691     199.797    -571.629
  O      -25.599     200.121    -570.780
  O      -24.390     200.460    -568.604
  O      -26.835     201.200    -568.741
  H      -24.307     201.404    -568.373
  H      -26.364     199.802    -572.648
  H      -27.470     200.520    -571.500
  H      -27.061     198.825    -571.378

 6  7  8  9  10  11  12  13  14  15  26  29  33  34 0
 6-311+G(2d,p)
 ****
 36  38  39  40  41 0
 6-311+G(2d,p)
 ****
 1  2  3  4  5  16  17  18  19  20  21  22  23  24  25 0
 3-21G
 ****
 27  28  30  31  32  35  37  42  43  44  45  46  47 0
 3-21G
 ****
 48  49 0
 3-21G
 ****


