%nproc=1
%NoSave
%Mem=1900MB
#P OB98/GEN NMR

erre ene a

0 1
  C       57.463     -29.727     101.307
  O       57.129     -31.001     101.816
  P       56.873     -32.254     100.846
  C       54.525     -31.235     100.590
  O       55.280     -32.426     100.768
  C       53.098     -31.394     101.121
  O       52.422     -30.107     101.085
  C       52.233     -32.394     100.341
  O       51.361     -33.002     101.299
  C       51.452     -31.490      99.407
  O       50.281     -32.113      98.892
  C       51.211     -30.276     100.316
  N       50.872     -29.080      99.553
  C       49.541     -28.658      99.608
  O       48.699     -29.326     100.214
  N       49.179     -27.519      98.930
  C       50.049     -26.917      98.178
  N       49.635     -25.791      97.536
  C       51.429     -27.404      97.993
  C       51.775     -28.469      98.713
  O       57.622     -33.495     101.201
  O       57.229     -31.686      99.395
  H       49.653     -32.252      99.635
  H       58.212     -31.642      99.272
  H       52.101     -26.902      97.313
  H       52.765     -28.899      98.644
  H       50.396     -30.478     101.023
  H       52.080     -31.207      98.554
  H       52.811     -33.150      99.808
  H       53.165     -31.696     102.174
  H       48.684     -25.485      97.703
  H       54.480     -31.023      99.516
  H       50.251     -25.206      96.997
  H       55.031     -30.396     101.075
  P       51.117     -34.585     101.314
  C       48.647     -34.456     100.659
  O       49.572     -34.818     101.666
  O       52.078     -35.366     102.154
  O       51.211     -35.018      99.774
  H       51.327     -35.986      99.713
  H       47.679     -34.909     100.884
  H       48.979     -34.803      99.675
  H       48.534     -33.367     100.639
  H       57.589     -29.041     102.118
  H       56.678     -29.382     100.667
  H       58.374     -29.793     100.750

 3  4  5  6  7  8  9  10  11  12  13  23  27  28  29  30  32 0
 6-311+G(2d,p)
 ****
 34  35 0
 6-311+G(2d,p)
 ****
 1  2  14  15  16  17  18  19  20  21  22  24  25  26 0
 3-21G
 ****
 31  33  36  37  38  39  40  41  42  43  44  45  46 0
 3-21G
 ****


