%nproc=1
%NoSave
%Mem=1900MB
#P OB98/GEN NMR

erre ene a

0 1
  C       41.511    -185.174    -248.757
  O       40.915    -186.413    -249.081
  H       42.147    -185.280    -247.875
  H       42.127    -184.847    -249.598
  H       40.741    -184.421    -248.571
  P       39.994    -187.090    -247.956
  C       38.365    -185.631    -246.565
  O       38.666    -186.191    -247.835
  C       37.253    -184.593    -246.703
  O       37.617    -183.674    -247.764
  C       35.869    -185.177    -247.032
  O       34.920    -184.796    -246.030
  C       35.479    -184.512    -248.343
  O       34.102    -184.138    -248.397
  C       36.394    -183.295    -248.410
  N       35.250    -179.821    -251.956
  C       35.182    -179.776    -250.608
  N       35.603    -180.696    -249.716
  C       36.167    -181.742    -250.343
  C       36.330    -181.919    -251.707
  C       35.822    -180.902    -252.533
  N       35.842    -180.973    -253.909
  N       36.946    -183.127    -251.976
  C       37.114    -183.689    -250.795
  N       36.640    -182.898    -249.781
  O       40.784    -186.777    -246.598
  O       39.754    -188.552    -248.129
  H       33.594    -184.961    -248.528
  H       40.855    -187.591    -246.064
  H       34.722    -178.886    -250.188
  H       37.525    -184.675    -250.620
  H       35.979    -182.435    -247.871
  H       35.679    -185.207    -249.168
  H       35.884    -186.269    -247.133
  H       37.208    -184.011    -245.775
  H       39.258    -185.142    -246.158
  H       35.352    -180.257    -254.422
  H       36.167    -181.825    -254.346
  H       38.065    -186.433    -245.882
  P       34.700    -185.828    -244.816
  C       35.702    -186.159    -242.436
  O       35.687    -185.386    -243.629
  O       35.366    -187.176    -245.367
  O       33.272    -186.021    -244.436
  H       34.950    -187.951    -244.944
  H       36.406    -185.739    -241.748
  H       35.985    -187.165    -242.666
  H       34.727    -186.155    -241.996

 6  7  8  9  10  11  12  13  14  15  25  28  32  33  34  35 0
 6-311+G(2d,p)
 ****
 36  39  40 0
 6-311+G(2d,p)
 ****
 1  2  3  4  5  16  17  18  19  20  21  22  23  24 0
 3-21G
 ****
 26  27  29  30  31  37  38  41  42  43  44  45  46  47  48 0
 3-21G
 ****


