%nproc=1
%NoSave
%Mem=1900MB
#P OB98/GEN NMR

erre ene a

0 1
  C      802.185    -262.105      67.938
  O      802.482    -262.331      69.299
  H      801.935    -263.062      67.469
  H      803.055    -261.685      67.431
  H      801.333    -261.429      67.840
  P      802.707    -261.038      70.217
  C      804.667    -259.326      70.572
  O      804.184    -260.488      69.897
  C      806.093    -259.569      71.072
  O      807.005    -259.777      69.970
  C      806.691    -258.393      71.825
  O      806.109    -258.207      73.097
  C      808.152    -258.811      71.862
  O      808.383    -259.786      72.887
  C      808.325    -259.441      70.460
  N      809.034    -258.565      69.536
  C      810.405    -258.390      69.790
  O      810.943    -258.971      70.733
  N      811.125    -257.534      68.973
  C      810.533    -256.935      67.997
  N      811.288    -256.099      67.233
  C      809.099    -257.114      67.679
  C      808.419    -257.919      68.485
  O      802.872    -261.667      71.681
  O      801.652    -259.986      70.116
  H      809.347    -259.957      72.901
  H      803.555    -262.366      71.730
  H      808.652    -256.590      66.835
  H      807.357    -258.107      68.329
  H      808.891    -260.387      70.524
  H      808.811    -257.971      72.075
  H      806.622    -257.484      71.221
  H      806.085    -260.483      71.685
  H      812.266    -255.988      67.496
  H      804.008    -259.046      71.399
  H      810.932    -255.549      66.466
  H      804.659    -258.498      69.850
  P      806.409    -256.876      73.938
  C      808.530    -255.729      74.851
  O      808.001    -256.696      73.938
  O      805.788    -256.827      75.291
  O      805.935    -255.704      72.962
  H      806.400    -255.668      72.105
  H      809.596    -255.699      74.760
  H      808.265    -256.001      75.851
  H      808.125    -254.765      74.624

 6  7  8  9  10  11  12  13  14  15  16  26  30  31  32  33  35 0
 6-311+G(2d,p)
 ****
 37  38 0
 6-311+G(2d,p)
 ****
 1  2  3  4  5  17  18  19  20  21  22  23  24  25 0
 3-21G
 ****
 27  28  29  34  36  39  40  41  42  43  44  45  46 0
 3-21G
 ****


