%nproc=1
%NoSave
%Mem=1900MB
#P OB98/GEN NMR

erre ene a

0 1
  C      -51.714      -0.657      38.213
  O      -50.348      -0.492      37.914
  P      -49.271       0.056      38.956
  C      -48.779       2.313      40.182
  O      -49.610       1.588      39.281
  C      -49.338       3.720      40.437
  O      -50.729       3.599      40.832
  C      -48.604       4.420      41.593
  O      -48.328       5.794      41.359
  C      -49.468       4.077      42.801
  O      -49.275       4.949      43.904
  C      -50.866       4.070      42.189
  N      -53.648       3.404      46.390
  C      -52.957       4.525      45.974
  N      -52.847       5.526      46.875
  N      -52.397       4.633      44.795
  C      -52.492       3.510      44.045
  C      -53.153       2.342      44.351
  C      -53.794       2.249      45.641
  O      -54.321       1.233      46.097
  N      -52.981       1.390      43.380
  C      -52.188       1.969      42.500
  N      -51.838       3.245      42.878
  O      -47.845      -0.312      38.702
  O      -49.731      -0.685      40.317
  H      -48.320       4.965      44.104
  H      -48.920      -0.871      40.831
  H      -53.989       3.350      47.344
  H      -51.815       1.505      41.594
  H      -51.291       5.073      42.154
  H      -49.182       3.073      43.135
  H      -53.140       5.411      47.836
  H      -47.608       3.983      41.734
  H      -52.146       6.237      46.691
  H      -49.302       4.296      39.506
  H      -47.794       2.379      39.706
  H      -48.663       1.767      41.121
  P      -47.106       6.675      41.889
  C      -45.873       6.932      44.123
  O      -47.102       6.635      43.490
  O      -47.517       8.189      41.572
  O      -45.790       6.357      41.260
  H      -46.732       8.685      41.271
  H      -45.926       6.607      45.166
  H      -45.697       8.011      44.097
  H      -45.045       6.413      43.631
  H      -52.224      -1.037      37.352
  H      -52.135       0.287      38.490
  H      -51.821      -1.347      39.024

 3  4  5  6  7  8  9  10  11  12  23  26  30  31 0
 6-311+G(2d,p)
 ****
 33  35  36  37  38 0
 6-311+G(2d,p)
 ****
 1  2  13  14  15  16  17  18  19  20  21  22  24  25 0
 3-21G
 ****
 27  28  29  32  34  39  40  41  42  43  44  45  46  47  48  49 0
 3-21G
 ****


