%nproc=1
%NoSave
%Mem=1900MB
#P OB98/GEN NMR

erre ene a

0 1
  C      -23.566     100.262     234.606
  O      -23.453     100.459     233.207
  P      -24.472      99.747     232.194
  C      -24.658      97.438     231.075
  O      -23.999      98.219     232.067
  C      -24.299      95.960     231.222
  O      -24.636      95.527     232.561
  C      -25.042      95.053     230.248
  O      -24.170      93.990     229.846
  C      -26.170      94.459     231.071
  O      -26.592      93.189     230.540
  C      -25.529      94.401     232.462
  N      -26.705      92.991     237.261
  C      -25.612      92.763     236.500
  N      -25.376      93.145     235.224
  C      -26.399      93.883     234.760
  C      -27.576      94.205     235.418
  C      -27.713      93.721     236.733
  N      -28.827      93.967     237.511
  N      -28.403      94.954     234.605
  C      -27.729      95.101     233.487
  N      -26.507      94.480     233.532
  O      -24.662     100.446     230.893
  O      -25.840      99.637     233.014
  H      -25.782      92.704     230.279
  H      -26.604      99.796     232.427
  H      -24.818      92.190     236.977
  H      -28.080      95.632     232.612
  H      -24.938      93.484     232.597
  H      -27.033      95.134     231.054
  H      -25.410      95.587     229.366
  H      -23.212      95.852     231.105
  H      -24.336      97.792     230.090
  H      -28.784      93.685     238.478
  H      -29.495      94.651     237.183
  H      -25.744      97.580     231.160
  P      -24.350      93.468     228.332
  C      -26.117      91.861     227.292
  O      -25.803      92.793     228.304
  O      -23.197      92.629     227.888
  O      -24.511      94.854     227.541
  H      -24.849      95.564     228.128
  H      -27.157      91.545     227.417
  H      -25.475      90.979     227.380
  H      -25.999      92.311     226.304
  H      -22.801     100.817     235.107
  H      -23.457      99.221     234.830
  H      -24.526     100.599     234.937

 3  4  5  6  7  8  9  10  11  12  22  25  29  30  31  32 0
 6-311+G(2d,p)
 ****
 33  36  37 0
 6-311+G(2d,p)
 ****
 1  2  13  14  15  16  17  18  19  20  21  23  24  26 0
 3-21G
 ****
 27  28  34  35  38  39  40  41  42  43  44  45  46  47  48 0
 3-21G
 ****


