%nproc=1
%NoSave
%Mem=1900MB
#P OB98/GEN NMR

erre ene a

0 1
  C      156.089     -48.566     326.949
  O      156.010     -49.702     327.785
  H      155.799     -48.856     325.936
  H      157.108     -48.174     326.921
  H      155.402     -47.791     327.300
  P      156.538     -49.589     329.293
  C      158.872     -50.666     329.456
  O      158.137     -49.475     329.209
  C      160.330     -50.505     329.019
  O      160.916     -49.407     329.769
  C      161.183     -51.755     329.257
  O      162.107     -51.883     328.173
  C      161.912     -51.420     330.541
  O      163.110     -52.161     330.667
  C      162.097     -49.904     330.428
  N      162.287     -49.294     331.743
  C      163.587     -49.317     332.259
  O      164.505     -49.818     331.608
  N      163.808     -48.834     333.523
  C      162.811     -48.416     334.236
  N      163.094     -47.987     335.495
  C      161.417     -48.398     333.746
  C      161.230     -48.845     332.502
  O      156.036     -50.623     330.245
  O      156.091     -48.117     329.739
  H      163.801     -51.765     330.093
  H      155.207     -48.145     330.150
  H      160.621     -48.047     334.380
  H      160.242     -48.881     332.062
  H      162.962     -49.662     329.799
  H      161.274     -51.661     331.401
  H      160.588     -52.669     329.350
  H      160.345     -50.212     327.963
  H      164.059     -48.042     335.798
  H      158.404     -51.474     328.883
  H      162.398     -47.681     336.157
  H      158.825     -50.917     330.520
  P      162.183     -53.238     327.319
  C      163.901     -54.788     328.410
  O      162.520     -54.460     328.306
  O      163.049     -53.165     326.104
  O      160.657     -53.514     326.902
  H      160.638     -53.984     326.048
  H      164.023     -55.609     329.086
  H      164.442     -53.941     328.776
  H      164.276     -55.061     327.446

 6  7  8  9  10  11  12  13  14  15  16  26  30  31  32  33  35 0
 6-311+G(2d,p)
 ****
 37  38 0
 6-311+G(2d,p)
 ****
 1  2  3  4  5  17  18  19  20  21  22  23  24  25 0
 3-21G
 ****
 27  28  29  34  36  39  40  41  42  43  44  45  46 0
 3-21G
 ****


