%nproc=1
%NoSave
%Mem=1900MB
#P OB98/GEN NMR

erre ene a

0 1
  C      845.101    -158.349     354.154
  O      844.238    -157.230     354.164
  H      845.230    -158.697     355.185
  H      846.079    -158.075     353.749
  H      844.664    -159.157     353.565
  P      843.946    -156.544     352.745
  C      841.561    -157.550     352.819
  O      842.348    -156.373     352.705
  C      840.084    -157.196     352.983
  O      839.875    -156.497     354.214
  C      839.537    -156.304     351.874
  O      839.166    -157.065     350.745
  C      838.311    -155.711     352.570
  O      837.224    -156.657     352.510
  C      838.792    -155.552     354.028
  N      837.826    -151.338     356.791
  C      837.077    -152.419     356.523
  N      837.367    -153.477     355.730
  C      838.602    -153.345     355.210
  C      839.488    -152.301     355.397
  C      839.064    -151.256     356.245
  N      839.846    -150.154     356.516
  N      840.657    -152.511     354.698
  C      840.499    -153.696     354.147
  N      839.263    -154.230     354.390
  O      844.573    -157.202     351.562
  O      844.443    -155.043     353.021
  H      836.975    -156.738     351.566
  H      844.175    -154.757     353.914
  H      836.097    -152.434     356.994
  H      841.262    -154.220     353.573
  H      837.999    -155.808     354.739
  H      837.967    -154.792     352.093
  H      840.233    -155.491     351.627
  H      839.516    -158.136     353.031
  H      841.892    -158.147     353.680
  H      839.387    -149.376     356.971
  H      840.701    -150.037     356.010
  H      841.716    -158.145     351.913
  P      839.340    -156.492     349.253
  C      841.492    -157.718     348.551
  O      840.076    -157.668     348.447
  O      839.986    -155.151     349.184
  O      837.864    -156.504     348.657
  H      837.818    -155.938     347.859
  H      841.863    -158.539     347.974
  H      841.770    -157.848     349.576
  H      841.909    -156.805     348.181

 6  7  8  9  10  11  12  13  14  15  25  28  32  33  34  35 0
 6-311+G(2d,p)
 ****
 36  39  40 0
 6-311+G(2d,p)
 ****
 1  2  3  4  5  16  17  18  19  20  21  22  23  24 0
 3-21G
 ****
 26  27  29  30  31  37  38  41  42  43  44  45  46  47 0
 3-21G
 ****
 48 0
 3-21G
 ****


