%nproc=1
%NoSave
%Mem=1900MB
#P OB98/GEN NMR

erre ene a

0 1
  C     -219.354     104.488      60.002
  O     -220.709     104.772      59.638
  P     -221.697     103.534      59.382
  C     -222.476     102.127      57.336
  O     -221.621     103.147      57.825
  C     -222.793     102.362      55.853
  O     -223.810     103.379      55.682
  C     -221.591     102.831      55.040
  O     -220.777     101.741      54.630
  C     -222.281     103.441      53.828
  O     -222.672     102.402      52.910
  C     -223.521     104.099      54.456
  N     -223.556     108.770      52.504
  C     -223.816     107.551      51.905
  N     -224.146     107.585      50.592
  N     -223.764     106.406      52.533
  C     -223.437     106.528      53.843
  C     -223.156     107.676      54.552
  C     -223.207     108.936      53.840
  O     -222.969     110.046      54.314
  N     -222.868     107.396      55.862
  C     -222.990     106.086      55.955
  N     -223.321     105.509      54.752
  O     -223.147     104.202      59.509
  O     -221.522     102.402      60.342
  H     -223.311     102.803      52.289
  H     -223.798     103.536      59.803
  H     -223.604     109.621      51.972
  H     -222.855     105.514      56.865
  H     -224.405     104.027      53.810
  H     -221.626     104.122      53.274
  H     -224.253     108.434      50.060
  H     -221.021     103.601      55.580
  H     -224.373     106.703      50.145
  H     -223.170     101.421      55.429
  H     -223.406     102.099      57.912
  H     -221.999     101.155      57.493
  P     -219.505     101.381      55.540
  C     -217.281     102.601      56.108
  O     -218.437     102.546      55.289
  O     -218.879     100.111      54.788
  O     -219.821     101.075      56.968
  H     -218.451      99.518      55.434
  H     -216.596     103.347      55.699
  H     -216.775     101.632      56.138
  H     -217.560     102.904      57.127
  H     -218.821     105.406      60.138
  H     -218.888     103.917      59.226
  H     -219.339     103.928      60.914

 3  4  5  6  7  8  9  10  11  12  23  26  30  31 0
 6-311+G(2d,p)
 ****
 33  35  36  37  38 0
 6-311+G(2d,p)
 ****
 1  2  13  14  15  16  17  18  19  20  21  22  24  25 0
 3-21G
 ****
 27  28  29  32  34  39  40  41  42  43  44  45  46  47  48  49 0
 3-21G
 ****


