%nproc=1
%NoSave
%Mem=1900MB
#P OB98/GEN NMR

erre ene a

0 1
  C     -184.198    -135.337      -3.042
  O     -185.283    -136.198      -2.776
  H     -183.632    -135.192      -2.118
  H     -184.575    -134.367      -3.378
  H     -183.531    -135.754      -3.801
  P     -185.995    -136.938      -4.002
  C     -188.210    -135.822      -3.281
  O     -187.337    -136.129      -4.361
  C     -189.509    -135.179      -3.770
  O     -189.265    -133.801      -4.125
  C     -190.071    -135.866      -5.018
  O     -190.909    -136.977      -4.751
  C     -190.855    -134.732      -5.673
  O     -192.202    -134.673      -5.176
  C     -190.075    -133.478      -5.263
  N     -188.372    -129.376      -7.795
  C     -189.371    -129.452      -6.843
  N     -190.013    -128.298      -6.565
  N     -189.707    -130.564      -6.242
  C     -189.045    -131.651      -6.698
  C     -188.050    -131.701      -7.650
  C     -187.632    -130.455      -8.256
  O     -186.742    -130.332      -9.091
  N     -187.638    -132.992      -7.882
  C     -188.442    -133.722      -7.137
  N     -189.256    -132.951      -6.342
  O     -186.572    -138.282      -3.342
  O     -185.109    -137.260      -5.167
  H     -192.648    -133.915      -5.602
  H     -186.574    -138.996      -4.004
  H     -188.137    -128.489      -8.203
  H     -188.447    -134.806      -7.100
  H     -190.753    -132.671      -4.954
  H     -190.925    -134.882      -6.754
  H     -189.854    -127.435      -7.058
  H     -189.263    -136.158      -5.695
  H     -190.874    -128.346      -6.016
  H     -190.239    -135.174      -2.950
  H     -187.671    -135.129      -2.634
  H     -188.423    -136.720      -2.696
  P     -191.097    -138.141      -5.828
  C     -193.580    -137.347      -6.144
  O     -192.376    -137.802      -6.719
  O     -191.584    -139.380      -4.940
  O     -189.884    -138.473      -6.634
  H     -190.839    -139.978      -4.745
  H     -194.303    -137.181      -6.915
  H     -193.401    -136.432      -5.620
  H     -193.950    -138.083      -5.461

 6  7  8  9  10  11  12  13  14  15  26  29  33  34 0
 6-311+G(2d,p)
 ****
 36  38  39  40  41 0
 6-311+G(2d,p)
 ****
 1  2  3  4  5  16  17  18  19  20  21  22  23  24  25 0
 3-21G
 ****
 27  28  30  31  32  35  37  42  43  44  45  46  47 0
 3-21G
 ****
 48  49 0
 3-21G
 ****


