%nproc=1
%NoSave
%Mem=1900MB
#P OB98/GEN NMR

erre ene a

0 1
  C     -280.704    -154.509     105.393
  O     -281.070    -155.578     104.541
  P     -281.099    -155.324     102.961
  C     -281.508    -157.826     102.381
  O     -281.977    -156.488     102.292
  C     -282.609    -158.805     101.965
  O     -283.621    -158.870     103.016
  C     -283.327    -158.423     100.664
  O     -283.687    -159.641      99.994
  C     -284.581    -157.733     101.170
  O     -285.616    -157.674     100.203
  C     -284.895    -158.602     102.393
  N     -285.829    -157.967     103.317
  C     -287.185    -158.209     103.121
  O     -287.635    -158.918     102.223
  N     -288.034    -157.549     103.968
  C     -287.679    -156.628     104.908
  O     -288.501    -155.982     105.553
  C     -286.233    -156.411     105.070
  C     -285.388    -157.078     104.282
  O     -279.603    -155.668     102.503
  O     -281.500    -153.944     102.558
  H     -286.358    -157.176     100.594
  H     -279.085    -154.849     102.386
  H     -289.025    -157.722     103.850
  H     -285.914    -155.701     105.821
  H     -284.316    -156.924     104.366
  H     -285.300    -159.570     102.068
  H     -284.335    -156.704     101.463
  H     -282.729    -157.786     100.002
  H     -282.169    -159.807     101.881
  H     -281.212    -158.034     103.409
  H     -280.622    -157.948     101.746
  P     -282.901    -160.017      98.642
  C     -283.455    -162.563      98.870
  O     -283.543    -161.380      98.103
  O     -281.485    -160.468      99.236
  O     -282.813    -158.888      97.666
  H     -281.570    -161.028     100.026
  H     -283.498    -162.351      99.942
  H     -282.513    -163.070      98.641
  H     -284.286    -163.222      98.604
  H     -280.733    -154.838     106.411
  H     -281.388    -153.697     105.261
  H     -279.714    -154.184     105.152

 3  4  5  6  7  8  9  10  11  12  13  23  28  29  30  31  32 0
 6-311+G(2d,p)
 ****
 33  34 0
 6-311+G(2d,p)
 ****
 1  2  14  15  16  17  18  19  20  21  22  24  25  26 0
 3-21G
 ****
 27  35  36  37  38  39  40  41  42  43  44  45 0
 3-21G
 ****


