%nproc=1
%NoSave
%Mem=1900MB
#P OB98/GEN NMR

erre ene a

0 1
  C     -185.563     162.876     273.849
  O     -186.673     163.386     274.560
  H     -184.653     163.089     274.416
  H     -185.486     163.354     272.869
  H     -185.660     161.795     273.730
  P     -188.105     163.270     273.849
  C     -188.092     160.829     274.741
  O     -188.409     161.706     273.668
  C     -189.082     159.665     274.756
  O     -190.408     160.155     275.066
  C     -189.217     158.948     273.423
  O     -188.152     158.041     273.177
  C     -190.548     158.240     273.607
  O     -190.394     156.993     274.298
  C     -191.347     159.250     274.450
  N     -192.345     159.956     273.648
  C     -193.562     159.299     273.481
  O     -193.804     158.195     273.970
  N     -194.481     159.935     272.695
  C     -194.290     161.113     272.036
  O     -195.139     161.602     271.302
  C     -192.980     161.755     272.233
  C     -192.080     161.154     273.015
  O     -187.816     163.778     272.360
  O     -189.197     164.049     274.505
  H     -188.192     164.669     272.238
  H     -191.280     156.768     274.645
  H     -195.370     159.475     272.564
  H     -192.795     162.690     271.722
  H     -191.102     161.600     273.169
  H     -191.872     158.738     275.267
  H     -191.009     158.023     272.647
  H     -189.309     159.675     272.607
  H     -188.782     158.965     275.545
  H     -188.165     161.366     275.692
  H     -187.066     160.471     274.617
  P     -187.969     157.490     271.680
  C     -187.204     159.790     270.652
  O     -188.177     158.759     270.721
  O     -189.309     156.632     271.515
  O     -186.701     156.730     271.486
  H     -190.026     156.970     272.082
  H     -187.527     160.540     269.961
  H     -186.272     159.380     270.323
  H     -187.079     160.228     271.620

 6  7  8  9  10  11  12  13  14  15  16  27  31  32  33  34  35 0
 6-311+G(2d,p)
 ****
 36  37 0
 6-311+G(2d,p)
 ****
 1  2  3  4  5  17  18  19  20  21  22  23  24  25 0
 3-21G
 ****
 26  28  29  30  38  39  40  41  42  43  44  45 0
 3-21G
 ****


