%nproc=1
%NoSave
%Mem=1900MB
#P OB98/GEN NMR

erre ene a

0 1
  C      567.641     546.105     526.345
  O      566.975     547.242     526.851
  H      566.898     545.342     526.093
  H      568.311     545.700     527.111
  H      568.213     546.341     525.444
  P      567.795     548.610     527.023
  C      569.373     547.842     528.914
  O      569.262     548.202     527.541
  C      570.846     547.787     529.346
  O      571.433     546.563     528.815
  C      571.693     548.968     528.839
  O      572.718     549.209     529.811
  C      572.289     548.393     527.567
  O      573.409     549.146     527.135
  C      572.569     546.956     528.001
  N      572.765     546.052     526.871
  C      573.840     546.324     526.040
  O      574.602     547.281     526.199
  N      574.020     545.474     524.979
  C      573.190     544.445     524.642
  O      573.375     543.741     523.654
  C      572.035     544.234     525.529
  C      571.877     545.033     526.589
  O      567.131     549.673     527.824
  O      568.085     549.092     525.518
  H      573.107     550.033     526.828
  H      568.137     550.064     525.481
  H      574.802     545.661     524.368
  H      571.352     543.427     525.279
  H      571.034     544.893     527.265
  H      573.463     546.902     528.632
  H      571.557     548.407     526.753
  H      571.107     549.871     528.667
  H      570.886     547.709     530.446
  H      568.908     546.860     529.052
  H      568.835     548.573     529.531
  P      572.804     550.567     530.654
  C      574.455     551.725     529.036
  O      573.164     551.774     529.642
  O      573.685     550.504     531.844
  O      571.288     550.884     531.072
  H      571.283     551.393     531.898
  H      574.579     552.570     528.391
  H      574.547     550.824     528.466
  H      575.207     551.744     529.797

 6  7  8  9  10  11  12  13  14  15  16  26  31  32  33  34  35 0
 6-311+G(2d,p)
 ****
 36  37 0
 6-311+G(2d,p)
 ****
 1  2  3  4  5  17  18  19  20  21  22  23  24  25 0
 3-21G
 ****
 27  28  29  30  38  39  40  41  42  43  44  45 0
 3-21G
 ****


