%nproc=1
%NoSave
%Mem=1900MB
#P OB98/GEN NMR

erre ene a

0 1
  C      -80.415    -249.627     101.193
  O      -81.651    -248.897     101.233
  P      -81.807    -247.766     102.364
  C      -84.267    -247.951     103.259
  O      -83.357    -247.350     102.345
  C      -85.138    -248.974     102.531
  O      -84.333    -250.075     102.034
  C      -86.207    -249.617     103.404
  O      -87.283    -248.722     103.651
  C      -86.570    -250.838     102.569
  O      -87.476    -250.472     101.513
  C      -85.197    -251.233     101.970
  N      -84.597    -252.386     102.631
  C      -84.563    -253.565     101.886
  O      -85.032    -253.654     100.751
  N      -83.995    -254.647     102.505
  C      -83.491    -254.671     103.772
  O      -82.975    -255.668     104.270
  C      -83.596    -253.412     104.527
  C      -84.138    -252.345     103.936
  O      -81.053    -246.539     101.672
  O      -81.260    -248.188     103.689
  H      -81.175    -246.508     100.709
  H      -88.279    -250.125     101.948
  H      -83.947    -255.503     101.977
  H      -83.231    -253.401     105.547
  H      -84.227    -251.404     104.477
  H      -85.306    -251.471     100.905
  H      -87.053    -251.624     103.160
  H      -85.766    -249.938     104.357
  H      -85.605    -248.472     101.666
  H      -84.907    -247.186     103.704
  H      -83.696    -248.422     104.069
  P      -87.808    -248.618     105.170
  C      -90.270    -249.392     104.747
  O      -89.386    -248.348     105.087
  O      -87.189    -247.207     105.614
  O      -87.392    -249.770     106.027
  H      -87.296    -246.515     104.942
  H      -91.281    -249.120     105.078
  H      -89.987    -250.329     105.229
  H      -90.281    -249.525     103.660
  H      -80.449    -250.342     100.398
  H      -80.271    -250.135     102.124
  H      -79.605    -248.948     101.028

 3  4  5  6  7  8  9  10  11  12  13  24  28  29  30  31  32 0
 6-311+G(2d,p)
 ****
 33  34 0
 6-311+G(2d,p)
 ****
 1  2  14  15  16  17  18  19  20  21  22  23  25  26  27 0
 3-21G
 ****
 35  36  37  38  39  40  41  42  43  44  45 0
 3-21G
 ****


