%nproc=1
%NoSave
%Mem=1900MB
#P OB98/GEN NMR

erre ene a

0 1
  C      155.079      23.312    -150.523
  O      156.031      23.964    -151.362
  P      156.064      25.566    -151.379
  C      158.136      26.007    -149.904
  O      157.589      26.048    -151.218
  C      159.673      25.961    -149.961
  O      160.084      24.659    -150.459
  C      160.315      26.986    -150.901
  O      160.641      28.270    -150.378
  C      161.641      26.300    -151.227
  O      162.595      26.562    -150.180
  C      161.288      24.816    -151.240
  N      163.556      22.549    -155.224
  C      164.027      22.941    -154.022
  N      163.356      23.540    -153.014
  C      162.065      23.713    -153.339
  C      161.443      23.361    -154.526
  C      162.247      22.752    -155.503
  N      161.772      22.364    -156.734
  N      160.107      23.705    -154.496
  C      159.932      24.272    -153.319
  N      161.082      24.288    -152.577
  O      155.079      26.249    -150.494
  O      155.769      25.900    -152.922
  H      163.415      26.098    -150.430
  H      155.210      26.699    -152.970
  H      165.082      22.753    -153.844
  H      158.998      24.681    -152.964
  H      162.063      24.199    -150.770
  H      162.086      26.672    -152.154
  H      159.724      27.101    -151.817
  H      160.073      26.080    -148.948
  H      157.761      25.126    -149.378
  H      162.425      21.974    -157.395
  H      160.813      22.560    -156.981
  H      157.764      26.878    -149.366
  P      160.195      29.615    -151.126
  C      159.587      30.911    -148.937
  O      160.423      30.794    -150.066
  O      158.832      29.580    -151.729
  O      161.379      29.839    -152.176
  H      162.233      30.070    -151.775
  H      160.033      31.627    -148.242
  H      159.479      29.949    -148.430
  H      158.604      31.282    -149.242
  H      155.183      22.252    -150.623
  H      154.091      23.603    -150.812
  H      155.250      23.593    -149.505

 3  4  5  6  7  8  9  10  11  12  22  25  29  30  31  32 0
 6-311+G(2d,p)
 ****
 33  36  37 0
 6-311+G(2d,p)
 ****
 1  2  13  14  15  16  17  18  19  20  21  23  24  26 0
 3-21G
 ****
 27  28  34  35  38  39  40  41  42  43  44  45  46  47  48 0
 3-21G
 ****


