%nproc=1
%NoSave
%Mem=1900MB
#P OB98/GEN NMR

erre ene a

0 1
  C       15.365      -4.558     -25.597
  O       15.548      -4.986     -26.933
  H       14.974      -5.395     -25.014
  H       14.647      -3.735     -25.553
  H       16.318      -4.245     -25.163
  P       16.077      -3.924     -28.008
  C       13.738      -3.799     -29.095
  O       14.794      -3.080     -28.470
  C       13.038      -2.920     -30.128
  O       12.197      -1.949     -29.477
  C       13.988      -2.131     -31.028
  O       14.472      -2.946     -32.081
  C       13.058      -1.034     -31.519
  O       12.187      -1.560     -32.540
  C       12.246      -0.718     -30.249
  N       12.174       4.240     -29.169
  C       11.556       3.548     -30.192
  N       10.842       4.285     -31.068
  N       11.640       2.252     -30.348
  C       12.443       1.654     -29.439
  C       13.123       2.233     -28.392
  C       12.968       3.659     -28.191
  O       13.479       4.307     -27.281
  N       13.913       1.322     -27.739
  C       13.669       0.183     -28.357
  N       12.789       0.331     -29.405
  O       16.878      -4.483     -29.145
  O       16.915      -2.871     -27.144
  H       11.831      -2.404     -32.208
  H       17.857      -3.117     -27.105
  H       12.080       5.239     -29.103
  H       14.096      -0.776     -28.089
  H       11.213      -0.434     -30.482
  H       13.591      -0.188     -31.955
  H       10.863       5.294     -31.088
  H       14.801      -1.676     -30.453
  H       10.430       3.802     -31.858
  H       12.380      -3.565     -30.726
  H       13.035      -4.100     -28.312
  H       14.124      -4.700     -29.582
  P       15.909      -2.685     -32.753
  C       15.031      -1.488     -34.872
  O       15.727      -1.364     -33.643
  O       16.480      -3.852     -33.481
  O       16.816      -2.153     -31.552
  H       17.221      -2.884     -31.022
  H       14.987      -0.534     -35.355
  H       14.038      -1.840     -34.686
  H       15.543      -2.184     -35.503

 6  7  8  9  10  11  12  13  14  15  26  29  33  34 0
 6-311+G(2d,p)
 ****
 36  38  39  40  41 0
 6-311+G(2d,p)
 ****
 1  2  3  4  5  16  17  18  19  20  21  22  23  24  25 0
 3-21G
 ****
 27  28  30  31  32  35  37  42  43  44  45  46  47 0
 3-21G
 ****
 48  49 0
 3-21G
 ****


