%nproc=1
%NoSave
%Mem=1900MB
#P OB98/GEN NMR

erre ene a

0 1
  C      330.834     245.575     217.865
  O      330.385     246.119     219.118
  P      329.278     245.381     220.023
  C      326.760     244.842     219.850
  O      327.958     245.148     219.134
  C      325.506     245.289     219.074
  O      325.416     246.722     219.014
  C      325.463     244.809     217.624
  O      325.064     243.453     217.557
  C      324.475     245.801     217.010
  O      323.127     245.400     217.299
  C      324.826     247.093     217.762
  N      325.621     249.398     213.251
  C      324.605     248.623     213.706
  N      324.467     248.036     214.917
  C      325.514     248.347     215.711
  C      326.623     249.118     215.378
  C      326.657     249.656     214.086
  N      327.702     250.428     213.615
  N      327.498     249.185     216.444
  C      326.928     248.484     217.409
  N      325.726     247.961     217.009
  O      329.018     246.043     221.335
  O      329.852     243.899     220.229
  H      323.062     244.442     217.135
  H      329.513     243.536     221.077
  H      323.796     248.442     213.001
  H      327.338     248.336     218.407
  H      323.922     247.682     217.998
  H      324.570     245.874     215.923
  H      326.444     244.938     217.153
  H      324.632     244.920     219.621
  H      326.795     245.363     220.814
  H      327.662     250.750     212.662
  H      328.494     250.588     214.216
  H      326.730     243.766     220.026
  P      326.167     242.297     217.392
  C      327.089     240.865     215.476
  O      326.298     241.983     215.827
  O      325.980     241.098     218.266
  O      327.551     243.039     217.724
  H      328.182     242.404     218.101
  H      328.151     241.133     215.506
  H      326.829     240.558     214.457
  H      326.902     240.024     216.150
  H      331.567     246.226     217.436
  H      330.003     245.484     217.197
  H      331.266     244.610     218.029

 3  4  5  6  7  8  9  10  11  12  22  25  29  30  31  32 0
 6-311+G(2d,p)
 ****
 33  36  37 0
 6-311+G(2d,p)
 ****
 1  2  13  14  15  16  17  18  19  20  21  23  24  26 0
 3-21G
 ****
 27  28  34  35  38  39  40  41  42  43  44  45  46  47  48 0
 3-21G
 ****


