%nproc=1
%NoSave
%Mem=1900MB
#P OB98/GEN NMR

erre ene a

0 1
  C       72.142      95.102     -67.148
  O       70.983      94.760     -67.873
  H       72.194      96.190     -67.064
  H       73.027      94.748     -67.684
  H       72.127      94.673     -66.142
  P       70.416      93.269     -67.759
  C       68.401      93.624     -66.185
  O       69.719      93.107     -66.321
  C       67.405      92.534     -65.792
  O       67.810      91.932     -64.544
  C       65.990      93.081     -65.579
  O       65.204      93.150     -66.756
  C       65.409      92.074     -64.591
  O       64.808      90.960     -65.272
  C       66.632      91.616     -63.789
  N       65.639      91.196     -58.792
  C       65.223      90.383     -59.830
  N       64.414      89.357     -59.489
  N       65.561      90.579     -61.077
  C       66.290      91.700     -61.273
  C       66.744      92.593     -60.328
  C       66.428      92.328     -58.941
  O       66.785      93.007     -57.985
  N       67.422      93.639     -60.906
  C       67.301      93.421     -62.200
  N       66.693      92.218     -62.469
  O       71.741      92.378     -67.602
  O       69.599      92.799     -68.924
  H       64.616      90.269     -64.609
  H       71.594      91.502     -68.004
  H       65.371      90.979     -57.850
  H       67.673      94.075     -62.981
  H       66.630      90.529     -63.643
  H       64.623      92.532     -63.985
  H       64.055      89.211     -58.560
  H       66.023      94.058     -65.090
  H       63.935      88.853     -60.238
  H       67.418      91.741     -66.550
  H       68.132      94.045     -67.154
  H       68.386      94.439     -65.456
  P       64.051      94.246     -66.909
  C       65.234      95.413     -68.942
  O       64.659      95.517     -67.658
  O       63.845      94.764     -65.410
  O       62.776      93.757     -67.514
  H       63.076      94.328     -64.998
  H       65.578      96.376     -69.258
  H       64.501      95.052     -69.633
  H       66.059      94.733     -68.909

 6  7  8  9  10  11  12  13  14  15  26  29  33  34 0
 6-311+G(2d,p)
 ****
 36  38  39  40  41 0
 6-311+G(2d,p)
 ****
 1  2  3  4  5  16  17  18  19  20  21  22  23  24  25 0
 3-21G
 ****
 27  28  30  31  32  35  37  42  43  44  45  46  47 0
 3-21G
 ****
 48  49 0
 3-21G
 ****


