%nproc=1
%NoSave
%Mem=1900MB
#P OB98/GEN NMR

erre ene a

0 1
  C      499.563     404.017      78.623
  O      500.305     403.161      79.492
  P      501.793     402.734      79.090
  C      501.425     400.501      77.859
  O      501.887     401.132      79.044
  C      501.321     398.977      78.053
  O      502.648     398.404      78.185
  C      500.514     398.588      79.302
  O      499.490     397.630      79.036
  C      501.580     398.153      80.290
  O      501.086     397.276      81.292
  C      502.687     397.606      79.383
  N      504.001     397.637      80.032
  C      504.116     396.977      81.244
  O      503.158     396.443      81.816
  N      505.354     396.989      81.823
  C      506.447     397.654      81.355
  O      507.522     397.682      81.935
  C      506.250     398.396      80.098
  C      505.053     398.355      79.503
  O      502.890     403.406      79.849
  O      501.870     403.123      77.531
  H      500.672     396.501      80.847
  H      502.761     403.482      77.355
  H      505.459     396.493      82.699
  H      507.089     398.959      79.706
  H      504.878     398.899      78.587
  H      502.486     396.565      79.105
  H      501.959     399.049      80.806
  H      499.971     399.450      79.712
  H      500.850     398.563      77.155
  H      502.122     400.702      77.046
  H      500.468     400.937      77.560
  P      497.940     397.987      78.848
  C      497.188     396.643      80.933
  O      497.070     396.832      79.536
  O      497.518     398.348      77.459
  O      497.737     399.237      79.829
  H      497.154     399.891      79.402
  H      496.850     395.636      81.179
  H      496.549     397.365      81.452
  H      498.218     396.757      81.265
  H      498.596     404.199      79.043
  H      499.455     403.548      77.667
  H      500.083     404.945      78.508

 3  4  5  6  7  8  9  10  11  12  13  23  28  29  30  31  32 0
 6-311+G(2d,p)
 ****
 33  34 0
 6-311+G(2d,p)
 ****
 1  2  14  15  16  17  18  19  20  21  22  24  25  26  27 0
 3-21G
 ****
 35  36  37  38  39  40  41  42  43  44  45 0
 3-21G
 ****


