%nproc=1
%NoSave
%Mem=1900MB
#P OB98/GEN NMR

erre ene a

0 1
  C      377.788     329.491    -461.780
  O      376.937     328.898    -460.822
  H      377.195     329.761    -462.658
  H      378.557     328.774    -462.088
  H      378.259     330.393    -461.374
  P      377.592     328.501    -459.413
  C      378.023     326.192    -460.524
  O      378.538     327.230    -459.696
  C      378.973     324.994    -460.538
  O      379.045     324.434    -459.190
  C      378.543     323.862    -461.490
  O      379.730     323.268    -462.039
  C      377.900     322.850    -460.542
  O      377.871     321.538    -461.093
  C      378.812     323.012    -459.324
  N      379.720     321.893    -454.498
  C      380.530     322.498    -455.446
  N      381.767     322.864    -455.051
  N      380.146     322.730    -456.682
  C      378.868     322.339    -456.928
  C      377.980     321.727    -456.082
  C      378.418     321.454    -454.725
  O      377.757     320.904    -453.849
  N      376.785     321.465    -456.720
  C      376.966     321.919    -457.944
  N      378.210     322.462    -458.122
  O      376.357     327.880    -458.609
  O      378.238     329.624    -458.667
  H      377.462     321.599    -461.985
  H      375.926     328.570    -458.064
  H      380.069     321.730    -453.570
  H      376.229     321.882    -458.742
  H      379.774     322.512    -459.452
  H      376.872     323.151    -460.313
  H      382.108     322.765    -454.109
  H      377.877     324.179    -462.296
  H      382.351     323.347    -455.724
  H      379.982     325.349    -460.780
  H      377.909     326.574    -461.542
  H      377.039     325.886    -460.139
  P      380.096     323.588    -463.565
  C      378.707     321.561    -464.433
  O      378.943     322.958    -464.491
  O      381.342     322.617    -463.840
  O      380.435     325.020    -463.826
  H      381.908     323.006    -464.535
  H      377.914     321.305    -465.104
  H      378.432     321.287    -463.436
  H      379.596     321.037    -464.715

 6  7  8  9  10  11  12  13  14  15  26  29  33  34 0
 6-311+G(2d,p)
 ****
 36  38  39  40  41 0
 6-311+G(2d,p)
 ****
 1  2  3  4  5  16  17  18  19  20  21  22  23  24  25 0
 3-21G
 ****
 27  28  30  31  32  35  37  42  43  44  45  46  47 0
 3-21G
 ****
 48  49 0
 3-21G
 ****


