%nproc=1
%NoSave
%Mem=1900MB
#P OB98/GEN NMR

erre ene a

0 1
  C     -402.620    -790.194    -103.827
  O     -402.318    -788.850    -104.163
  H     -401.874    -790.552    -103.109
  H     -402.583    -790.826    -104.717
  H     -403.613    -790.246    -103.367
  P     -403.230    -788.162    -105.285
  C     -402.472    -785.742    -104.702
  O     -402.517    -786.774    -105.681
  C     -401.431    -784.702    -105.117
  O     -400.107    -785.272    -105.023
  C     -401.567    -784.227    -106.559
  O     -402.597    -783.261    -106.722
  C     -400.186    -783.638    -106.798
  O     -400.090    -782.289    -106.325
  C     -399.279    -784.580    -105.986
  N     -398.547    -785.503    -106.847
  C     -397.192    -785.215    -107.026
  O     -396.628    -784.253    -106.508
  N     -396.510    -786.060    -107.865
  C     -397.047    -787.102    -108.564
  O     -396.393    -787.777    -109.346
  C     -398.484    -787.348    -108.350
  C     -399.158    -786.550    -107.516
  O     -404.529    -787.704    -104.472
  O     -403.573    -789.036    -106.444
  H     -405.276    -788.291    -104.692
  H     -400.279    -782.322    -105.364
  H     -395.529    -785.873    -108.013
  H     -398.945    -788.167    -108.888
  H     -400.222    -786.702    -107.343
  H     -398.546    -783.996    -105.410
  H     -399.950    -783.630    -107.863
  H     -401.716    -785.077    -107.224
  H     -401.490    -783.857    -104.420
  H     -402.182    -786.162    -103.732
  H     -403.461    -785.292    -104.614
  P     -404.004    -783.763    -107.304
  C     -405.402    -781.545    -107.012
  O     -404.726    -782.465    -107.890
  O     -404.784    -784.100    -105.950
  O     -403.856    -784.908    -108.260
  H     -404.460    -783.567    -105.203
  H     -405.820    -780.745    -107.587
  H     -404.704    -781.149    -106.304
  H     -406.185    -782.057    -106.492

 6  7  8  9  10  11  12  13  14  15  16  27  31  32  33  34  35 0
 6-311+G(2d,p)
 ****
 36  37 0
 6-311+G(2d,p)
 ****
 1  2  3  4  5  17  18  19  20  21  22  23  24  25 0
 3-21G
 ****
 26  28  29  30  38  39  40  41  42  43  44  45 0
 3-21G
 ****


