%nproc=1
%NoSave
%Mem=1900MB
#P OB98/GEN NMR

erre ene a

0 1
  C       70.016    -178.924     -76.941
  O       69.804    -178.298     -75.692
  P       70.444    -176.870     -75.360
  C       72.227    -178.042     -73.914
  O       71.987    -177.130     -74.982
  C       72.694    -177.284     -72.664
  O       72.920    -178.250     -71.589
  C       74.006    -176.507     -72.887
  O       73.946    -175.127     -72.521
  C       75.024    -177.340     -72.124
  O       76.197    -176.633     -71.771
  C       74.174    -177.893     -70.975
  N       74.807    -179.025     -70.301
  C       75.286    -178.809     -69.011
  O       75.202    -177.742     -68.409
  N       75.942    -179.859     -68.432
  C       76.263    -181.037     -69.040
  O       76.938    -181.899     -68.493
  C       75.764    -181.192     -70.417
  C       75.049    -180.208     -70.970
  O       69.699    -176.054     -74.359
  O       70.568    -176.182     -76.800
  H       76.658    -176.382     -72.595
  H       71.123    -176.665     -77.440
  H       76.295    -179.715     -67.499
  H       76.010    -182.112     -70.927
  H       74.669    -180.294     -71.982
  H       73.961    -177.123     -70.228
  H       75.334    -178.168     -72.776
  H       74.278    -176.488     -73.951
  H       71.885    -176.614     -72.362
  H       73.007    -178.741     -74.219
  H       71.324    -178.625     -73.712
  P       74.530    -173.918     -73.396
  C       75.882    -173.102     -71.331
  O       75.883    -173.412     -72.710
  O       73.548    -172.841     -73.728
  O       75.045    -174.639     -74.732
  H       74.989    -174.018     -75.480
  H       76.643    -172.341     -71.143
  H       76.140    -173.999     -70.761
  H       74.913    -172.721     -71.002
  H       69.506    -179.864     -76.960
  H       71.064    -179.084     -77.086
  H       69.639    -178.298     -77.722

 3  4  5  6  7  8  9  10  11  12  13  23  28  29  30  31  32 0
 6-311+G(2d,p)
 ****
 33  34 0
 6-311+G(2d,p)
 ****
 1  2  14  15  16  17  18  19  20  21  22  24  25  26  27 0
 3-21G
 ****
 35  36  37  38  39  40  41  42  43  44  45 0
 3-21G
 ****


