%nproc=1
%NoSave
%Mem=1900MB
#P OB98/GEN NMR

erre ene a

0 1
  C      291.309    -336.535    -683.287
  O      290.626    -336.942    -682.104
  P      290.793    -336.020    -680.796
  C      293.198    -336.733    -680.004
  O      292.362    -335.750    -680.598
  C      294.638    -336.215    -679.856
  O      294.660    -335.171    -678.849
  C      295.661    -337.252    -679.393
  O      296.977    -336.772    -679.714
  C      295.461    -337.224    -677.898
  O      296.570    -337.793    -677.205
  C      295.205    -335.727    -677.621
  N      294.278    -335.474    -676.495
  C      294.606    -335.967    -675.238
  O      295.638    -336.596    -674.994
  N      293.695    -335.741    -674.236
  C      292.519    -335.058    -674.372
  O      291.694    -334.968    -673.467
  C      292.283    -334.442    -675.689
  C      293.150    -334.687    -676.668
  O      290.406    -337.003    -679.601
  O      289.950    -334.791    -680.821
  H      296.323    -337.801    -676.248
  H      289.525    -336.777    -679.253
  H      293.888    -336.147    -673.337
  H      291.394    -333.829    -675.799
  H      292.972    -334.250    -677.654
  H      296.144    -335.197    -677.388
  H      294.573    -337.807    -677.624
  H      295.514    -338.254    -679.807
  H      294.956    -335.766    -680.806
  H      293.174    -337.641    -680.606
  H      292.805    -336.995    -679.014
  P      297.717    -337.407    -680.986
  C      298.737    -339.371    -679.670
  O      297.841    -338.987    -680.696
  O      298.973    -336.730    -681.419
  O      296.587    -337.359    -682.125
  H      296.995    -337.428    -683.003
  H      298.383    -340.301    -679.225
  H      298.815    -338.607    -678.890
  H      299.725    -339.544    -680.109
  H      291.111    -337.235    -684.072
  H      292.362    -336.501    -683.097
  H      290.968    -335.564    -683.580

 3  4  5  6  7  8  9  10  11  12  13  23  28  29  30  31  32 0
 6-311+G(2d,p)
 ****
 33  34 0
 6-311+G(2d,p)
 ****
 1  2  14  15  16  17  18  19  20  21  22  24  25  26  27 0
 3-21G
 ****
 35  36  37  38  39  40  41  42  43  44  45 0
 3-21G
 ****


