%nproc=1
%NoSave
%Mem=1900MB
#P OB98/GEN NMR

erre ene a

0 1
  C     -621.520     273.411     343.786
  O     -622.012     274.492     343.019
  H     -621.681     273.633     344.846
  H     -620.449     273.288     343.610
  H     -622.049     272.486     343.536
  P     -622.098     274.286     341.431
  C     -624.075     275.923     341.003
  O     -622.693     275.650     340.825
  C     -624.631     276.634     339.772
  O     -624.221     278.033     339.816
  C     -624.132     276.060     338.439
  O     -625.195     276.132     337.486
  C     -623.032     277.021     338.035
  O     -622.755     277.034     336.642
  C     -623.605     278.344     338.553
  N     -622.583     279.378     338.705
  C     -622.744     280.552     337.977
  O     -623.726     280.818     337.285
  N     -621.713     281.452     338.070
  C     -620.559     281.284     338.780
  O     -619.663     282.120     338.811
  C     -620.446     280.024     339.525
  C     -621.443     279.142     339.451
  O     -623.309     273.249     341.267
  O     -620.845     273.809     340.776
  H     -622.977     272.333     341.295
  H     -622.674     276.094     336.356
  H     -621.815     282.304     337.549
  H     -619.536     279.853     340.089
  H     -621.381     278.185     339.970
  H     -624.394     278.707     337.884
  H     -622.103     276.766     338.559
  H     -623.769     275.023     338.505
  H     -625.728     276.619     339.815
  H     -624.204     276.575     341.875
  H     -624.609     274.984     341.182
  P     -626.437     275.138     337.685
  C     -628.075     276.933     336.700
  O     -627.545     275.616     336.628
  O     -626.998     275.622     339.096
  O     -626.050     273.698     337.607
  H     -626.909     276.581     339.238
  H     -628.795     277.071     335.921
  H     -627.283     277.643     336.583
  H     -628.545     277.077     337.650

 6  7  8  9  10  11  12  13  14  15  16  27  31  32  33  34  35 0
 6-311+G(2d,p)
 ****
 36  37 0
 6-311+G(2d,p)
 ****
 1  2  3  4  5  17  18  19  20  21  22  23  24  25 0
 3-21G
 ****
 26  28  29  30  38  39  40  41  42  43  44  45 0
 3-21G
 ****


