%nproc=1
%NoSave
%Mem=1900MB
#P OB98/GEN NMR

erre ene a

0 1
  C      265.734      13.069     113.232
  O      264.398      13.296     113.642
  P      263.823      12.438     114.867
  C      263.633      10.055     113.799
  O      262.975      11.233     114.243
  C      262.613       9.087     113.200
  O      261.841       8.440     114.235
  C      261.579       9.753     112.299
  O      262.123      10.035     111.004
  C      260.466       8.722     112.278
  O      260.725       7.702     111.299
  C      260.537       8.155     113.708
  N      259.475       8.658     114.566
  C      258.285       7.929     114.575
  O      258.126       6.924     113.889
  N      257.295       8.412     115.377
  C      257.340       9.558     116.116
  O      256.384       9.969     116.766
  C      258.593      10.314     116.038
  C      259.587       9.835     115.287
  O      262.728      13.385     115.535
  O      264.858      11.993     115.854
  H      260.560       8.093     110.421
  H      262.719      13.261     116.506
  H      256.426       7.874     115.419
  H      258.666      11.237     116.609
  H      260.532      10.391     115.201
  H      260.468       7.056     113.678
  H      259.496       9.172     112.016
  H      261.217      10.683     112.762
  H      263.159       8.309     112.639
  H      264.138       9.580     114.657
  H      264.391      10.325     113.059
  P      262.156      11.578     110.550
  C      259.582      11.626     110.107
  O      260.894      11.750     109.584
  O      263.435      11.567     109.568
  O      262.278      12.527     111.697
  H      263.530      10.706     109.103
  H      259.516      12.010     111.137
  H      259.295      10.570     110.099
  H      258.899      12.179     109.491
  H      265.969      13.712     112.410
  H      265.846      12.049     112.930
  H      266.397      13.274     114.047

 3  4  5  6  7  8  9  10  11  12  13  23  28  29  30  31  32 0
 6-311+G(2d,p)
 ****
 33  34 0
 6-311+G(2d,p)
 ****
 1  2  14  15  16  17  18  19  20  21  22  24  25  26 0
 3-21G
 ****
 27  35  36  37  38  39  40  41  42  43  44  45 0
 3-21G
 ****


