%nproc=1
%NoSave
%Mem=1900MB
#P OB98/GEN NMR

erre ene a

0 1
  C      572.923     100.165      -8.746
  O      571.584     100.453      -9.092
  H      572.927      99.503      -7.875
  H      573.439     101.090      -8.484
  H      573.439      99.666      -9.574
  P      571.327     101.148     -10.512
  C      569.774     102.910      -9.424
  O      569.915     101.913     -10.416
  C      568.531     102.642      -8.568
  O      567.358     102.676      -9.428
  C      568.543     101.278      -7.856
  O      567.970     101.429      -6.563
  C      567.644     100.418      -8.727
  O      567.059      99.334      -7.997
  C      566.641     101.445      -9.223
  N      564.198      97.622     -11.430
  C      564.637      97.769     -10.127
  N      564.386      96.745      -9.283
  N      565.255      98.839      -9.681
  C      565.396      99.797     -10.632
  C      565.019      99.771     -11.952
  C      564.356      98.569     -12.432
  O      563.972      98.374     -13.583
  N      565.370     100.925     -12.596
  C      565.964     101.656     -11.664
  N      565.998     101.012     -10.451
  O      571.016      99.907     -11.471
  O      572.457     101.972     -11.033
  H      566.481      98.838      -8.623
  H      571.712      99.835     -12.154
  H      563.736      96.777     -11.717
  H      566.387     102.643     -11.818
  H      565.835     101.639      -8.492
  H      568.219     100.002      -9.558
  H      563.876      95.914      -9.542
  H      569.552     100.860      -7.764
  H      564.665      96.846      -8.314
  H      568.419     103.463      -7.851
  H      569.684     103.886      -9.900
  H      570.667     102.914      -8.780
  P      568.818     100.866      -5.316
  C      567.067      99.229      -4.336
  O      567.787     100.436      -4.153
  O      569.528     102.179      -4.731
  O      569.822      99.827      -5.695
  H      570.479     102.161      -4.934
  H      566.425      99.066      -3.496
  H      567.754      98.413      -4.423
  H      566.479      99.296      -5.227

 6  7  8  9  10  11  12  13  14  15  26  29  33  34 0
 6-311+G(2d,p)
 ****
 36  38  39  40  41 0
 6-311+G(2d,p)
 ****
 1  2  3  4  5  16  17  18  19  20  21  22  23  24  25 0
 3-21G
 ****
 27  28  30  31  32  35  37  42  43  44  45  46  47 0
 3-21G
 ****
 48  49 0
 3-21G
 ****


