%nproc=1
%NoSave
%Mem=1900MB
#P OB98/GEN NMR

erre ene a

0 1
  C      244.442      61.624     -15.572
  O      243.620      62.577     -16.259
  P      242.130      62.938     -15.794
  C      243.093      65.290     -15.347
  O      242.151      64.298     -14.947
  C      242.517      66.703     -15.218
  O      241.293      66.822     -15.965
  C      242.165      67.120     -13.797
  O      243.330      67.450     -13.054
  C      241.226      68.295     -14.059
  O      241.960      69.499     -14.321
  C      240.478      67.823     -15.325
  N      239.145      67.317     -15.030
  C      238.186      68.267     -14.657
  O      238.497      69.448     -14.527
  N      236.902      67.839     -14.407
  C      236.621      66.576     -14.456
  N      235.334      66.216     -14.211
  C      237.621      65.533     -14.759
  C      238.849      65.977     -15.036
  O      241.418      61.810     -15.116
  O      241.360      63.347     -17.138
  H      242.527      69.651     -13.540
  H      240.419      63.110     -17.053
  H      237.351      64.490     -14.765
  H      239.643      65.279     -15.282
  H      240.392      68.647     -16.044
  H      240.562      68.498     -13.215
  H      241.612      66.316     -13.297
  H      243.247      67.400     -15.654
  H      234.670      66.952     -14.010
  H      243.362      65.104     -16.394
  H      235.008      65.259     -14.224
  H      243.994      65.188     -14.732
  P      243.467      66.960     -11.537
  C      244.686      64.798     -12.205
  O      243.560      65.359     -11.557
  O      242.475      67.528     -10.581
  O      244.958      67.391     -11.135
  H      244.982      67.599     -10.181
  H      244.847      63.791     -11.817
  H      245.582      65.400     -12.031
  H      244.488      64.738     -13.280
  H      245.390      61.551     -16.063
  H      243.962      60.668     -15.579
  H      244.588      61.942     -14.561

 3  4  5  6  7  8  9  10  11  12  13  23  27  28  29  30  32 0
 6-311+G(2d,p)
 ****
 34  35 0
 6-311+G(2d,p)
 ****
 1  2  14  15  16  17  18  19  20  21  22  24  25  26 0
 3-21G
 ****
 31  33  36  37  38  39  40  41  42  43  44  45  46 0
 3-21G
 ****


