%nproc=1
%NoSave
%Mem=1900MB
#P OB98/GEN NMR

erre ene a

0 1
  C      842.056    -602.289    -844.073
  O      841.732    -601.392    -845.110
  P      842.858    -600.707    -846.055
  C      842.015    -601.915    -848.176
  O      842.316    -600.654    -847.566
  C      840.950    -601.778    -849.288
  O      839.624    -601.809    -848.718
  C      841.042    -600.463    -850.058
  O      842.073    -600.519    -851.021
  C      839.617    -600.380    -850.646
  O      839.505    -601.202    -851.805
  C      838.773    -600.961    -849.498
  N      834.447    -598.493    -848.269
  C      834.708    -599.501    -849.137
  N      835.865    -600.107    -849.409
  C      836.858    -599.578    -848.664
  C      836.752    -598.557    -847.741
  C      835.480    -597.992    -847.542
  N      835.224    -596.958    -846.681
  N      837.996    -598.256    -847.178
  C      838.836    -599.109    -847.754
  N      838.186    -599.928    -848.655
  O      844.222    -601.335    -845.912
  O      842.883    -599.167    -845.613
  H      839.750    -602.115    -851.548
  H      843.790    -598.805    -845.767
  H      833.841    -599.884    -849.685
  H      839.880    -599.173    -847.536
  H      837.947    -601.582    -849.862
  H      839.336    -599.357    -850.934
  H      841.206    -599.617    -849.377
  H      841.057    -602.651    -849.954
  H      841.634    -602.608    -847.405
  H      834.283    -596.593    -846.638
  H      836.000    -596.534    -846.171
  H      842.935    -602.316    -848.602
  P      842.426    -599.217    -851.915
  C      844.804    -598.821    -850.963
  O      844.038    -599.218    -852.093
  O      841.828    -597.917    -851.420
  O      841.905    -599.590    -853.379
  H      841.635    -598.775    -853.836
  H      844.794    -597.726    -850.871
  H      845.839    -599.167    -851.092
  H      844.394    -599.271    -850.037
  H      841.159    -602.612    -843.587
  H      842.690    -601.800    -843.363
  H      842.565    -603.137    -844.481

 3  4  5  6  7  8  9  10  11  12  22  25  29  30  31  32 0
 6-311+G(2d,p)
 ****
 33  36  37 0
 6-311+G(2d,p)
 ****
 1  2  13  14  15  16  17  18  19  20  21  23  24  26 0
 3-21G
 ****
 27  28  34  35  38  39  40  41  42  43  44  45  46  47  48 0
 3-21G
 ****


