%nproc=1
%NoSave
%Mem=1900MB
#P OB98/GEN NMR

erre ene a

0 1
  C     -341.813     705.915     -73.596
  O     -341.609     706.714     -72.424
  P     -342.585     707.983     -72.220
  C     -341.107     709.641     -73.586
  O     -342.357     708.956     -73.475
  C     -340.746     709.866     -75.048
  O     -341.868     710.387     -75.797
  C     -339.612     710.870     -75.264
  O     -338.339     710.292     -75.033
  C     -339.803     711.214     -76.727
  O     -339.170     710.213     -77.557
  C     -341.337     711.148     -76.898
  N     -344.564     714.243     -79.288
  C     -344.181     712.955     -79.599
  N     -344.757     712.406     -80.692
  N     -343.318     712.265     -78.911
  C     -342.842     712.938     -77.833
  C     -343.144     714.216     -77.415
  C     -344.080     714.972     -78.207
  O     -344.436     716.132     -77.995
  N     -342.462     714.541     -76.265
  C     -341.778     713.472     -75.976
  N     -341.959     712.454     -76.901
  O     -341.919     708.768     -71.010
  O     -344.009     707.609     -71.941
  H     -339.559     709.353     -77.314
  H     -342.592     709.281     -70.521
  H     -345.239     714.726     -79.859
  H     -341.140     713.351     -75.108
  H     -341.619     710.633     -77.820
  H     -339.358     712.164     -77.013
  H     -345.496     712.841     -81.222
  H     -339.772     711.770     -74.645
  H     -344.517     711.436     -80.910
  H     -340.453     708.896     -75.480
  H     -340.319     709.057     -73.099
  H     -341.179     710.589     -73.035
  P     -337.598     710.675     -73.658
  C     -335.463     711.544     -74.872
  O     -336.570     711.852     -74.042
  O     -336.653     709.407     -73.418
  O     -338.505     710.927     -72.519
  H     -336.490     709.299     -72.448
  H     -335.755     710.901     -75.697
  H     -334.686     711.068     -74.266
  H     -335.065     712.477     -75.269
  H     -341.105     705.113     -73.609
  H     -341.681     706.521     -74.468
  H     -342.805     705.515     -73.586

 3  4  5  6  7  8  9  10  11  12  23  26  30  31  33  0
 6-311+G(2d,p)
 ****
 35  36  37  38 0
 6-311+G(2d,p)
 ****
 1  2  13  14  15  16  17  18  19  20  21  22  24  25  27  28  29 0
 3-21G
 ****
 32  34  39  40  41  42  43  44  45  46  47  48  49 0
 3-21G
 ****


