%nproc=1
%NoSave
%Mem=1900MB
#P OB98/GEN NMR

erre ene a

0 1
  C     -119.929     679.466     659.184
  O     -120.266     678.708     660.329
  H     -120.839     679.923     658.786
  H     -119.491     678.821     658.418
  H     -119.223     680.264     659.450
  P     -119.057     677.971     661.082
  C     -118.637     677.166     663.521
  O     -119.446     677.936     662.644
  C     -118.479     677.908     664.846
  O     -117.880     679.199     664.621
  C     -119.793     678.192     665.559
  O     -120.303     677.050     666.238
  C     -119.385     679.321     666.488
  O     -118.783     678.822     667.692
  C     -118.357     680.093     665.656
  N     -119.884     684.862     666.638
  C     -119.288     683.936     667.405
  N     -118.899     682.682     667.068
  C     -119.162     682.448     665.773
  C     -119.757     683.301     664.863
  C     -120.137     684.569     665.334
  N     -120.762     685.504     664.554
  N     -119.897     682.677     663.637
  C     -119.375     681.479     663.788
  N     -118.919     681.294     665.069
  O     -117.873     679.047     661.010
  O     -118.652     676.659     660.502
  H     -117.922     678.439     667.431
  H     -117.260     678.811     660.287
  H     -119.110     684.220     668.441
  H     -119.325     680.715     663.025
  H     -117.485     680.398     666.246
  H     -120.254     679.918     666.776
  H     -120.540     678.574     664.841
  H     -117.806     677.330     665.503
  H     -117.653     677.018     663.077
  H     -119.111     676.188     663.675
  H     -121.058     686.368     664.983
  H     -121.050     685.253     663.623
  P     -121.740     677.177     666.929
  C     -122.958     675.539     668.564
  O     -122.182     675.702     667.387
  O     -122.727     677.495     665.697
  O     -121.839     678.215     667.996
  H     -123.439     678.100     665.996
  H     -123.160     674.499     668.717
  H     -123.881     676.070     668.459
  H     -122.418     675.925     669.403

 6  7  8  9  10  11  12  13  14  15  25  28  32  33  34  35 0
 6-311+G(2d,p)
 ****
 36  37  40 0
 6-311+G(2d,p)
 ****
 1  2  3  4  5  16  17  18  19  20  21  22  23  24 0
 3-21G
 ****
 26  27  29  30  31  38  39 41  42  43  44  45  46  47  48 0
 3-21G
 ****


