%nproc=1
%NoSave
%Mem=1900MB
#P OB98/GEN NMR

erre ene a

0 1
  C     -202.645    -574.277     427.233
  O     -203.285    -573.066     427.638
  P     -204.693    -573.235     428.407
  C     -206.273    -572.605     426.446
  O     -205.798    -573.635     427.308
  C     -207.537    -573.056     425.697
  O     -208.153    -571.922     425.009
  C     -207.270    -574.140     424.635
  O     -208.420    -574.994     424.631
  C     -207.192    -573.314     423.356
  O     -207.312    -574.110     422.185
  C     -208.306    -572.318     423.617
  N     -209.636    -570.530     419.017
  C     -209.812    -571.738     419.619
  N     -209.420    -572.137     420.842
  C     -208.800    -571.131     421.488
  C     -208.562    -569.847     421.023
  C     -209.011    -569.553     419.725
  N     -208.830    -568.330     419.117
  N     -207.874    -569.104     421.978
  C     -207.655    -569.955     422.968
  N     -208.273    -571.162     422.752
  O     -205.076    -571.737     428.824
  O     -204.621    -574.155     429.582
  H     -206.454    -574.565     422.003
  H     -204.851    -571.571     429.758
  H     -210.325    -572.481     419.005
  H     -207.060    -569.759     423.847
  H     -209.304    -572.768     423.511
  H     -206.217    -572.817     423.313
  H     -206.373    -574.741     424.837
  H     -208.264    -573.419     426.439
  H     -205.501    -572.329     425.723
  H     -209.180    -568.213     418.176
  H     -208.353    -567.586     419.598
  H     -206.469    -571.700     427.044
  P     -208.485    -576.213     425.668
  C     -206.597    -577.471     424.460
  O     -206.999    -576.829     425.659
  O     -209.281    -577.300     424.799
  O     -209.096    -575.912     426.999
  H     -208.885    -577.412     423.917
  H     -205.548    -577.772     424.562
  H     -206.685    -576.779     423.617
  H     -207.205    -578.366     424.282
  H     -201.726    -574.046     426.736
  H     -203.286    -574.813     426.565
  H     -202.443    -574.879     428.094

 3  4  5  6  7  8  9  10  11  12  22  25  29  30  31  32 0
 6-311+G(2d,p)
 ****
 33  36  37 0
 6-311+G(2d,p)
 ****
 1  2  13  14  15  16  17  18  19  20  21  23  24  26 0
 3-21G
 ****
 27  28  34  35  38  39  40  41  42  43  44  45  46  47  48 0
 3-21G
 ****


