%nproc=1
%NoSave
%Mem=1900MB
#P OB98/GEN NMR

erre ene a

0 1
  C       72.921      76.033     117.869
  O       72.398      75.483     116.671
  P       72.125      73.914     116.538
  C       73.591      71.770     116.936
  O       73.523      73.148     116.639
  C       74.980      71.247     116.544
  O       75.123      71.240     115.109
  C       76.092      72.116     117.125
  O       76.553      71.582     118.356
  C       77.136      72.096     116.026
  O       77.922      70.891     116.100
  C       76.253      72.083     114.755
  N       75.727      73.370     114.260
  C       76.608      74.410     113.978
  O       77.827      74.321     114.086
  N       76.027      75.590     113.581
  C       74.690      75.801     113.404
  O       74.172      76.905     113.288
  C       73.850      74.600     113.452
  C       74.391      73.466     113.893
  O       71.723      73.746     114.999
  O       71.081      73.363     117.454
  H       78.634      70.972     115.441
  H       70.754      73.703     114.899
  H       76.649      76.389     113.510
  H       72.806      74.693     113.179
  H       73.778      72.572     113.974
  H       76.776      71.605     113.919
  H       77.837      72.922     116.132
  H       75.739      73.149     117.254
  H       75.081      70.212     116.897
  H       72.811      71.229     116.388
  H       73.411      71.605     118.003
  P       77.300      72.535     119.402
  C       79.252      74.191     119.263
  O       78.494      73.215     118.574
  O       77.696      71.894     120.690
  O       76.250      73.726     119.628
  H       75.738      73.565     120.448
  H       80.130      74.441     118.662
  H       79.582      73.808     120.234
  H       78.652      75.093     119.403
  H       73.030      77.092     117.757
  H       73.875      75.596     118.075
  H       72.252      75.827     118.678

 3  4  5  6  7  8  9  10  11  12  13  23  28  29  30  31  32 0
 6-311+G(2d,p)
 ****
 33  34 0
 6-311+G(2d,p)
 ****
 1  2  14  15  16  17  18  19  20  21  22  24  25  26  27 0
 3-21G
 ****
 35  36  37  38  39  40  41  42  43  44  45 0
 3-21G
 ****


