%nproc=1
%NoSave
%Mem=1900MB
#P OB98/GEN NMR

erre ene a

0 1
  C     -188.265      -8.654     296.915
  O     -189.084      -9.801     296.947
  H     -187.251      -8.944     297.207
  H     -188.626      -7.900     297.617
  H     -188.231      -8.239     295.902
  P     -190.670      -9.633     296.742
  C     -191.187      -8.771     299.108
  O     -191.087      -8.424     297.731
  C     -191.789      -7.633     299.931
  O     -191.868      -8.029     301.329
  C     -190.990      -6.323     299.862
  O     -191.884      -5.227     299.640
  C     -190.365      -6.211     301.252
  O     -190.049      -4.867     301.594
  C     -191.436      -6.898     302.111
  N     -190.935      -7.313     303.424
  C     -190.890      -6.320     304.409
  O     -191.220      -5.160     304.142
  N     -190.428      -6.650     305.659
  C     -190.003      -7.857     305.892
  N     -189.547      -8.121     307.143
  C     -189.992      -8.918     304.865
  C     -190.473      -8.584     303.668
  O     -191.462     -10.889     296.919
  O     -190.820      -8.977     295.293
  H     -189.703      -4.853     302.511
  H     -191.742      -9.129     294.958
  H     -189.616      -9.907     305.101
  H     -190.514      -9.307     302.853
  H     -192.295      -6.235     302.267
  H     -189.432      -6.800     301.280
  H     -190.233      -6.324     299.088
  H     -192.831      -7.480     299.598
  H     -189.571      -7.365     307.821
  H     -190.186      -9.020     299.481
  H     -189.190      -9.017     307.439
  H     -191.835      -9.658     299.192
  P     -192.244      -4.917     298.103
  C     -190.692      -2.854     297.840
  O     -190.971      -4.186     297.436
  O     -193.340      -3.754     298.212
  O     -192.764      -6.103     297.355
  H     -194.238      -4.128     298.090
  H     -189.827      -2.498     297.321
  H     -190.510      -2.832     298.894
  H     -191.529      -2.229     297.610

 6  7  8  9  10  11  12  13  14  15  16  26  30  31  32  33  35 0
 6-311+G(2d,p)
 ****
 37  38 0
 6-311+G(2d,p)
 ****
 1  2  3  4  5  17  18  19  20  21  22  23  24  25 0
 3-21G
 ****
 27  28  29  34  36  39  40  41  42  43  44  45  46 0
 3-21G
 ****


