%nproc=1
%NoSave
%Mem=1900MB
#P OB98/GEN NMR

erre ene a

0 1
  C      220.960      86.557     108.286
  O      222.317      86.442     107.855
  P      222.885      87.675     106.990
  C      224.097      86.197     105.235
  O      224.225      87.173     106.257
  C      225.458      85.569     104.893
  O      226.365      86.579     104.353
  C      226.161      84.935     106.107
  O      226.868      83.782     105.620
  C      227.131      86.027     106.517
  O      228.163      85.571     107.379
  C      227.577      86.519     105.141
  N      231.894      88.991     104.008
  C      231.533      87.697     103.873
  N      230.358      87.109     104.208
  C      229.509      88.018     104.711
  C      229.734      89.370     104.912
  C      230.993      89.863     104.530
  N      231.383      91.175     104.682
  N      228.623      89.976     105.487
  C      227.777      88.980     105.685
  N      228.235      87.800     105.170
  O      223.411      88.701     108.098
  O      221.866      88.283     106.083
  H      228.891      86.224     107.396
  H      222.754      89.407     108.244
  H      232.286      87.034     103.453
  H      226.831      89.057     106.210
  H      228.257      85.811     104.652
  H      226.585      86.816     107.051
  H      225.478      84.624     106.899
  H      225.302      84.811     104.114
  H      223.677      86.648     104.331
  H      232.310      91.427     104.379
  H      230.744      91.854     105.080
  H      223.381      85.431     105.554
  P      226.234      82.332     105.852
  C      227.292      81.669     108.094
  O      227.354      81.532     106.686
  O      226.426      81.686     104.392
  O      224.834      82.291     106.364
  H      227.331      81.806     104.071
  H      228.048      81.021     108.543
  H      226.303      81.378     108.465
  H      227.509      82.709     108.377
  H      220.690      85.688     108.849
  H      220.321      86.642     107.432
  H      220.853      87.427     108.900

 3  4  5  6  7  8  9  10  11  12  22  25  29  30  31  32 0
 6-311+G(2d,p)
 ****
 33  36  37 0
 6-311+G(2d,p)
 ****
 1  2  13  14  15  16  17  18  19  20  21  23  24  26 0
 3-21G
 ****
 27  28  34  35  38  39  40  41  42  43  44  45  46  47  48 0
 3-21G
 ****


