%nproc=1
%NoSave
%Mem=1900MB
#P OB98/GEN NMR

erre ene a

0 1
  C       86.671      88.055     431.006
  O       87.241      87.575     429.804
  H       87.324      87.781     431.839
  H       85.688      87.605     431.171
  H       86.581      89.145     430.978
  P       86.459      87.849     428.432
  C       85.453      85.525     427.910
  O       85.220      86.835     428.422
  C       84.249      85.053     427.107
  O       83.022      85.390     427.794
  C       84.148      85.673     425.714
  O       85.004      84.997     424.809
  C       82.671      85.452     425.420
  O       82.448      84.078     425.063
  C       82.039      85.754     426.793
  N       78.248      89.119     426.679
  C       78.250      87.777     426.344
  N       77.092      87.274     425.868
  N       79.305      87.007     426.442
  C       80.410      87.668     426.862
  C       80.529      88.995     427.213
  C       79.346      89.822     427.150
  O       79.288      91.012     427.458
  N       81.824      89.318     427.530
  C       82.478      88.176     427.414
  N       81.669      87.148     426.996
  O       87.282      87.809     427.179
  O       85.771      89.275     428.653
  H       82.987      83.902     424.270
  H       86.339      89.996     428.328
  H       77.406      89.665     426.560
  H       83.536      88.044     427.620
  H       81.139      85.154     426.975
  H       82.300      86.071     424.604
  H       76.357      87.868     425.507
  H       84.342      86.750     425.734
  H       77.091      86.307     425.567
  H       84.290      83.958     427.050
  H       85.628      84.866     428.770
  H       86.344      85.522     427.275
  P       86.134      85.790     423.985
  C       85.092      85.631     421.624
  O       85.352      86.455     422.757
  O       87.321      84.973     423.603
  O       86.486      87.051     424.897
  H       87.199      86.876     425.560
  H       84.567      86.198     420.884
  H       84.496      84.794     421.921
  H       86.018      85.283     421.216

 6  7  8  9  10  11  12  13  14  15  26  29  33  34 0
 6-311+G(2d,p)
 ****
 36  38  39  40  41 0
 6-311+G(2d,p)
 ****
 1  2  3  4  5  16  17  18  19  20  21  22  23  24  25 0
 3-21G
 ****
 27  28  30  31  32  35  37  42  43  44  45  46  47 0
 3-21G
 ****
 48  49 0
 3-21G
 ****


