%nproc=1
%NoSave
%Mem=1900MB
#P OB98/GEN NMR

erre ene a

0 1
  C      112.596     -75.044      -9.326
  O      111.684     -75.203      -8.241
  P      110.152     -74.786      -8.464
  C      110.347     -72.282      -7.870
  O      110.101     -73.240      -8.894
  C      109.747     -70.918      -8.250
  O      110.428     -70.418      -9.432
  C      108.257     -70.945      -8.611
  O      107.306     -70.774      -7.565
  C      108.146     -69.715      -9.509
  O      107.996     -68.533      -8.699
  C      109.488     -69.673     -10.232
  N      108.274     -68.701     -15.107
  C      108.231     -67.935     -13.996
  N      108.571     -68.272     -12.734
  C      109.007     -69.538     -12.680
  C      109.110     -70.437     -13.728
  C      108.716     -69.976     -14.995
  N      108.749     -70.758     -16.125
  N      109.591     -71.651     -13.285
  C      109.757     -71.492     -11.987
  N      109.432     -70.230     -11.574
  O      109.203     -75.185      -7.384
  O      109.790     -75.530      -9.840
  H      108.101     -67.771      -9.299
  H      108.870     -75.855      -9.790
  H      107.872     -66.919     -14.137
  H      110.109     -72.259     -11.311
  H      109.879     -68.654     -10.328
  H      107.272     -69.756     -10.165
  H      108.012     -71.847      -9.186
  H      109.919     -70.209      -7.431
  H      111.424     -72.180      -7.717
  H      108.408     -70.364     -16.987
  H      109.021     -71.729     -16.050
  H      109.933     -72.679      -6.943
  P      106.337     -71.966      -7.114
  C      104.265     -70.799      -8.206
  O      105.105     -71.931      -8.139
  O      105.947     -71.955      -5.676
  O      107.148     -73.265      -7.572
  H      107.220     -73.376      -8.535
  H      103.636     -70.882      -9.097
  H      104.854     -69.882      -8.274
  H      103.621     -70.764      -7.323
  H      113.571     -75.364      -9.022
  H      112.632     -74.014      -9.614
  H      112.269     -75.635     -10.156

 3  4  5  6  7  8  9  10  11  12  22  25  29  30  31  32 0
 6-311+G(2d,p)
 ****
 33  36  37 0
 6-311+G(2d,p)
 ****
 1  2  13  14  15  16  17  18  19  20  21  23  24  26 0
 3-21G
 ****
 27  28  34  35  38  39  40  41  42  43  44  45  46  47  48 0
 3-21G
 ****


