%nproc=1
%NoSave
%Mem=1900MB
#P OB98/GEN NMR

erre ene a

0 1
  C       62.227     -31.268      23.906
  O       61.953     -31.537      25.266
  H       62.399     -30.195      23.787
  H       61.373     -31.557      23.287
  H       63.121     -31.808      23.583
  P       61.711     -33.072      25.663
  C       59.139     -33.064      26.041
  O       60.433     -33.089      26.632
  C       58.091     -32.759      27.108
  O       56.772     -32.831      26.520
  C       58.076     -33.745      28.270
  O       59.105     -33.477      29.206
  C       56.676     -33.524      28.828
  O       56.633     -32.396      29.710
  C       55.857     -33.232      27.564
  N       51.199     -34.823      26.246
  C       51.680     -33.601      26.562
  N       52.945     -33.257      26.884
  C       53.749     -34.332      26.851
  C       53.401     -35.638      26.555
  C       52.053     -35.872      26.236
  N       51.556     -37.121      25.951
  N       54.496     -36.470      26.671
  C       55.490     -35.679      27.021
  N       55.086     -34.380      27.136
  O       62.937     -33.384      26.646
  O       61.656     -34.025      24.517
  H       55.692     -32.246      29.925
  H       63.666     -33.788      26.141
  H       50.953     -32.794      26.558
  H       56.508     -35.999      27.210
  H       55.152     -32.404      27.710
  H       56.332     -34.391      29.393
  H       58.149     -34.773      27.896
  H       58.247     -31.735      27.468
  H       58.926     -34.041      25.596
  H       59.123     -32.302      25.255
  H       50.573     -37.218      25.754
  H       52.162     -37.924      26.045
  P       59.411     -34.567      30.338
  C       57.956     -33.472      32.193
  O       59.255     -33.845      31.762
  O       60.988     -34.803      30.203
  O       58.643     -35.838      30.204
  H       61.168     -35.621      29.704
  H       58.019     -33.006      33.154
  H       57.338     -34.343      32.259
  H       57.531     -32.786      31.491

 6  7  8  9  10  11  12  13  14  15  25  28  32  33  34  35 0
 6-311+G(2d,p)
 ****
 36  37  40 0
 6-311+G(2d,p)
 ****
 1  2  3  4  5  16  17  18  19  20  21  22  23  24 0
 3-21G
 ****
 26  27  29  30  31  38  39 41  42  43  44  45  46  47  48 0
 3-21G
 ****


