%nproc=1
%NoSave
%Mem=1900MB
#P OB98/GEN NMR

erre ene a

0 1
  C     1310.720      18.338      63.702
  O     1310.096      18.962      62.592
  H     1310.490      18.923      64.603
  H     1311.802      18.319      63.558
  H     1310.330      17.327      63.827
  P     1310.342      18.276      61.159
  C     1312.587      17.299      60.343
  O     1311.924      18.400      60.927
  C     1313.974      17.112      60.950
  O     1313.877      16.947      62.381
  C     1314.745      15.910      60.431
  O     1315.389      16.219      59.208
  C     1315.754      15.691      61.556
  O     1316.848      16.616      61.396
  C     1314.940      16.069      62.810
  N     1314.305      13.861      67.405
  C     1315.087      14.882      67.009
  N     1315.256      15.385      65.762
  C     1314.489      14.721      64.880
  C     1313.639      13.657      65.137
  C     1313.554      13.221      66.464
  N     1312.760      12.171      66.866
  N     1313.028      13.206      63.977
  C     1313.446      14.039      63.045
  N     1314.362      14.955      63.534
  O     1309.469      18.771      60.053
  O     1310.166      16.731      61.526
  H     1317.504      16.394      62.105
  H     1310.591      16.529      62.378
  H     1315.656      15.379      67.795
  H     1313.108      14.047      62.018
  H     1315.545      16.631      63.537
  H     1316.181      14.687      61.555
  H     1314.109      15.015      60.354
  H     1314.548      18.045      60.772
  H     1312.683      17.431      59.254
  H     1312.900      11.816      67.805
  H     1312.309      11.607      66.149
  H     1311.977      16.408      60.524
  P     1315.830      15.057      58.185
  C     1317.108      12.859      58.554
  O     1316.934      14.208      58.975
  O     1316.232      15.544      56.829
  O     1314.558      14.063      58.148
  H     1314.639      13.483      57.367
  H     1317.866      12.394      59.150
  H     1317.402      12.841      57.525
  H     1316.187      12.327      58.671

 6  7  8  9  10  11  12  13  14  15  25  28  32  33  34  35 0
 6-311+G(2d,p)
 ****
 36  39  40 0
 6-311+G(2d,p)
 ****
 1  2  3  4  5  16  17  18  19  20  21  22  23  24 0
 3-21G
 ****
 26  27  29  30  31  37  38  41  42  43  44  45  46  47 0
 3-21G
 ****
 48 0
 3-21G
 ****


