%nproc=1
%NoSave
%Mem=1900MB
#P OB98/GEN NMR

erre ene a

0 1
  C      225.140      88.561    -111.556
  O      225.651      88.000    -110.362
  H      225.975      88.773    -112.232
  H      224.614      89.496    -111.342
  H      224.461      87.852    -112.043
  P      224.595      87.708    -109.188
  C      223.190      89.173    -107.561
  O      224.244      89.122    -108.518
  C      222.740      90.620    -107.375
  O      223.749      91.354    -106.636
  C      222.554      91.387    -108.676
  O      221.321      91.089    -109.317
  C      222.612      92.821    -108.177
  O      221.339      93.267    -107.694
  C      223.644      92.739    -107.034
  N      224.936      93.295    -107.432
  C      225.386      94.372    -106.668
  O      224.760      94.838    -105.719
  N      226.576      94.924    -107.060
  C      227.317      94.549    -108.150
  O      228.346      95.124    -108.476
  C      226.783      93.417    -108.924
  C      225.631      92.851    -108.539
  O      225.483      86.970    -108.079
  O      223.413      86.893    -109.590
  H      225.268      86.018    -108.062
  H      220.965      92.519    -107.184
  H      226.923      95.700    -106.521
  H      227.343      93.093    -109.794
  H      225.211      92.024    -109.106
  H      223.288      93.288    -106.158
  H      222.910      93.498    -108.975
  H      223.404      91.208    -109.349
  H      221.812      90.624    -106.788
  H      223.545      88.783    -106.603
  H      222.360      88.547    -107.912
  P      221.310      91.034    -110.922
  C      221.526      92.889    -112.775
  O      221.303      92.559    -111.412
  O      219.820      90.511    -111.185
  O      222.391      90.174    -111.488
  H      219.217      90.766    -110.465
  H      221.482      93.951    -112.897
  H      220.774      92.429    -113.381
  H      222.491      92.535    -113.074

 6  7  8  9  10  11  12  13  14  15  16  27  31  32  33  34  35 0
 6-311+G(2d,p)
 ****
 36  37 0
 6-311+G(2d,p)
 ****
 1  2  3  4  5  17  18  19  20  21  22  23  24  25 0
 3-21G
 ****
 26  28  29  30  38  39  40  41  42  43  44  45 0
 3-21G
 ****


