%nproc=1
%NoSave
%Mem=1900MB
#P OB98/GEN NMR

erre ene a

0 1
  C       97.504     692.235    -634.294
  O       96.571     692.574    -633.283
  H       97.247     691.248    -634.687
  H       98.510     692.187    -633.872
  H       97.472     692.960    -635.113
  P       96.593     694.050    -632.674
  C       94.020     694.140    -632.937
  O       95.139     694.337    -632.065
  C       92.748     693.894    -632.112
  O       92.802     692.607    -631.474
  C       92.543     694.915    -630.991
  O       92.082     696.154    -631.502
  C       91.544     694.160    -630.116
  O       90.216     694.271    -630.653
  C       92.060     692.706    -630.242
  N       92.878     692.294    -629.098
  C       92.280     691.440    -628.172
  O       91.094     691.071    -628.272
  N       93.060     691.032    -627.125
  C       94.338     691.452    -626.870
  O       94.980     691.101    -625.887
  C       94.920     692.378    -627.861
  C       94.173     692.745    -628.914
  O       97.103     695.131    -633.589
  O       97.506     693.916    -631.361
  H       90.201     693.745    -631.478
  H       98.405     694.231    -631.557
  H       92.638     690.430    -626.447
  H       95.934     692.741    -627.690
  H       94.583     693.430    -629.654
  H       91.217     692.003    -630.336
  H       91.508     694.532    -629.096
  H       93.467     695.045    -630.415
  H       91.896     693.906    -632.809
  H       94.213     693.270    -633.574
  H       93.914     695.022    -633.576
  P       92.711     697.537    -630.985
  C       92.985     698.729    -633.248
  O       92.253     698.684    -632.025
  O       94.172     697.500    -630.700
  O       91.863     697.877    -629.674
  H       92.413     697.710    -628.873
  H       92.605     699.519    -633.862
  H       92.880     697.796    -633.761
  H       94.019     698.906    -633.038

 6  7  8  9  10  11  12  13  14  15  16  26  31  32  33  34  35 0
 6-311+G(2d,p)
 ****
 36  37 0
 6-311+G(2d,p)
 ****
 1  2  3  4  5  17  18  19  20  21  22  23  24  25 0
 3-21G
 ****
 27  28  29  30  38  39  40  41  42  43  44  45 0
 3-21G
 ****


