%nproc=1
%NoSave
%Mem=1900MB
#P OB98/GEN NMR

erre ene a

0 1
  C      655.834     382.922     -60.337
  O      656.117     383.178     -58.965
  P      655.455     384.421     -58.199
  C      657.691     385.687     -58.283
  O      656.320     385.692     -58.647
  C      658.375     386.979     -58.750
  O      658.375     386.987     -60.200
  C      657.672     388.280     -58.346
  O      658.009     388.739     -57.045
  C      658.248     389.233     -59.387
  O      659.581     389.625     -59.007
  C      658.281     388.363     -60.645
  N      655.737     391.578     -63.717
  C      656.920     391.694     -63.058
  N      657.517     390.802     -62.239
  C      656.796     389.664     -62.172
  C      655.590     389.395     -62.782
  C      655.048     390.426     -63.597
  N      653.853     390.289     -64.282
  N      655.135     388.134     -62.453
  C      656.080     387.645     -61.666
  N      657.102     388.526     -61.471
  O      655.305     384.227     -56.727
  O      654.054     384.644     -58.939
  H      660.063     389.826     -59.827
  H      653.475     385.194     -58.389
  H      657.446     392.632     -63.185
  H      656.051     386.664     -61.225
  H      659.161     388.559     -61.266
  H      657.656     390.163     -59.478
  H      656.588     388.213     -58.480
  H      659.415     386.962     -58.413
  H      658.173     384.828     -58.770
  H      653.626     391.027     -64.933
  H      653.429     389.377     -64.323
  H      657.789     385.568     -57.201
  P      656.795     389.234     -56.106
  C      657.073     391.817     -56.483
  O      656.319     390.642     -56.714
  O      657.102     389.252     -54.656
  O      655.611     388.240     -56.508
  H      655.270     388.332     -57.422
  H      656.677     392.620     -57.115
  H      658.126     391.660     -56.733
  H      656.971     392.112     -55.430
  H      656.371     382.053     -60.656
  H      656.134     383.763     -60.926
  H      654.784     382.757     -60.460

 3  4  5  6  7  8  9  10  11  12  22  25  29  30  31  32 0
 6-311+G(2d,p)
 ****
 33  36  37 0
 6-311+G(2d,p)
 ****
 1  2  13  14  15  16  17  18  19  20  21  23  24  26 0
 3-21G
 ****
 27  28  34  35  38  39  40  41  42  43  44  45  46  47  48 0
 3-21G
 ****


