%nproc=1
%NoSave
%Mem=1900MB
#P OB98/GEN NMR

erre ene a

0 1
  C      -18.282     -47.314     -22.055
  O      -17.573     -46.744     -23.154
  P      -16.838     -47.723     -24.191
  C      -14.702     -49.164     -24.174
  O      -15.723     -48.555     -23.391
  C      -13.668     -49.853     -23.279
  O      -12.924     -48.901     -22.493
  C      -14.289     -50.810     -22.275
  O      -14.716     -52.005     -22.906
  C      -13.149     -50.975     -21.276
  O      -12.199     -51.948     -21.736
  C      -12.509     -49.567     -21.278
  N      -12.843     -48.783     -20.098
  C      -12.816     -49.470     -18.878
  O      -12.562     -50.673     -18.849
  N      -13.094     -48.774     -17.726
  C      -13.380     -47.508     -17.791
  N      -13.642     -46.870     -16.619
  C      -13.429     -46.753     -19.057
  C      -13.161     -47.446     -20.161
  O      -16.373     -47.089     -25.460
  O      -17.958     -48.837     -24.480
  H      -11.742     -51.541     -22.499
  H      -17.835     -49.181     -25.387
  H      -13.668     -45.698     -19.057
  H      -13.178     -46.969     -21.136
  H      -11.416     -49.648     -21.329
  H      -13.510     -51.312     -20.300
  H      -15.143     -50.325     -21.783
  H      -12.964     -50.397     -23.925
  H      -13.613     -47.413     -15.764
  H      -14.212     -48.403     -24.790
  H      -13.825     -45.879     -16.558
  H      -15.165     -49.879     -24.865
  P      -16.287     -52.186     -23.171
  C      -18.470     -51.879     -21.808
  O      -17.056     -51.839     -21.811
  O      -16.448     -53.777     -23.293
  O      -16.801     -51.497     -24.396
  H      -17.151     -53.987     -23.935
  H      -18.814     -51.933     -20.769
  H      -18.848     -52.750     -22.350
  H      -18.866     -50.966     -22.260
  H      -18.711     -46.532     -21.463
  H      -17.607     -47.887     -21.454
  H      -19.059     -47.950     -22.423

 3  4  5  6  7  8  9  10  11  12  13  23  27  28  29  30  32 0
 6-311+G(2d,p)
 ****
 34  35 0
 6-311+G(2d,p)
 ****
 1  2  14  15  16  17  18  19  20  21  22  24  25  26 0
 3-21G
 ****
 31  33  36  37  38  39  40  41  42  43  44  45  46 0
 3-21G
 ****


