%nproc=1
%NoSave
%Mem=1900MB
#P OB98/GEN NMR

erre ene a

0 1
  C      -20.305     -33.511     -43.970
  O      -20.528     -34.733     -43.259
  P      -20.089     -36.154     -43.861
  C      -19.238     -37.550     -41.881
  O      -20.320     -37.322     -42.779
  C      -19.282     -36.650     -40.639
  O      -20.520     -36.845     -39.900
  C      -18.136     -36.867     -39.641
  O      -17.896     -35.594     -39.031
  C      -18.760     -37.827     -38.643
  O      -18.082     -37.871     -37.396
  C      -20.176     -37.270     -38.565
  N      -22.252     -39.378     -34.385
  C      -21.459     -38.296     -34.546
  N      -20.978     -37.775     -35.692
  C      -21.426     -38.463     -36.758
  C      -22.246     -39.579     -36.749
  C      -22.657     -40.049     -35.488
  N      -23.425     -41.178     -35.316
  N      -22.468     -40.034     -38.036
  C      -21.783     -39.207     -38.802
  N      -21.139     -38.238     -38.076
  O      -18.728     -36.163     -44.480
  O      -21.195     -36.467     -44.978
  H      -18.171     -37.000     -36.969
  H      -20.751     -36.781     -45.789
  H      -21.166     -37.785     -33.632
  H      -21.703     -39.276     -39.879
  H      -20.224     -36.389     -37.913
  H      -18.745     -38.842     -39.061
  H      -17.225     -37.259     -40.100
  H      -19.288     -35.610     -40.987
  H      -18.298     -37.378     -42.420
  H      -23.589     -41.488     -34.371
  H      -23.629     -41.762     -36.113
  H      -19.255     -38.603     -41.573
  P      -17.038     -34.459     -39.765
  C      -18.451     -32.485     -38.958
  O      -17.192     -33.130     -38.888
  O      -17.333     -34.288     -41.218
  O      -15.511     -34.887     -39.522
  H      -14.942     -34.436     -40.172
  H      -18.533     -31.940     -39.904
  H      -18.537     -31.777     -38.129
  H      -19.268     -33.212     -38.888
  H      -20.672     -32.689     -43.391
  H      -20.820     -33.545     -44.907
  H      -19.257     -33.385     -44.143

 3  4  5  6  7  8  9  10  11  12  22  25  29  30  31  32 0
 6-311+G(2d,p)
 ****
 33  36  37 0
 6-311+G(2d,p)
 ****
 1  2  13  14  15  16  17  18  19  20  21  23  24  26 0
 3-21G
 ****
 27  28  34  35  38  39  40  41  42  43  44  45  46  47  48 0
 3-21G
 ****


