%nproc=1
%NoSave
%Mem=1900MB
#P OB98/GEN NMR

erre ene a

0 1
  C      458.000    -315.783    -127.602
  O      458.376    -314.611    -128.293
  P      459.009    -313.333    -127.572
  C      458.136    -311.697    -125.757
  O      457.821    -312.496    -126.884
  C      456.905    -311.011    -125.136
  O      456.233    -311.943    -124.265
  C      457.341    -309.834    -124.255
  O      457.603    -308.573    -124.839
  C      456.348    -309.811    -123.104
  O      455.300    -308.859    -123.296
  C      455.777    -311.237    -123.099
  N      454.541    -312.425    -118.325
  C      453.769    -311.822    -119.303
  N      452.585    -311.312    -118.886
  N      454.133    -311.719    -120.554
  C      455.383    -312.194    -120.795
  C      456.232    -312.821    -119.913
  C      455.802    -312.964    -118.539
  O      456.493    -313.409    -117.628
  N      457.446    -313.097    -120.489
  C      457.345    -312.612    -121.708
  N      456.122    -312.013    -121.925
  O      460.061    -312.590    -128.330
  O      459.729    -314.016    -126.295
  H      454.699    -308.917    -122.525
  H      460.539    -313.504    -126.104
  H      454.244    -312.404    -117.356
  H      458.133    -312.627    -122.458
  H      454.680    -311.213    -123.156
  H      456.846    -309.539    -122.167
  H      452.344    -311.242    -117.913
  H      458.299    -310.117    -123.799
  H      452.078    -310.721    -119.534
  H      456.175    -310.740    -125.904
  H      458.868    -310.943    -126.079
  H      458.627    -312.306    -124.993
  P      458.454    -307.383    -124.183
  C      458.106    -305.679    -122.310
  O      457.477    -306.502    -123.271
  O      458.773    -306.403    -125.411
  O      459.725    -307.812    -123.514
  H      459.557    -305.853    -125.202
  H      457.368    -305.370    -121.564
  H      458.510    -304.785    -122.796
  H      458.921    -306.216    -121.802
  H      457.603    -316.494    -128.296
  H      457.255    -315.543    -126.872
  H      458.856    -316.200    -127.114

 3  4  5  6  7  8  9  10  11  12  23  26  30  31 0
 6-311+G(2d,p)
 ****
 33  35  36  37  38 0
 6-311+G(2d,p)
 ****
 1  2  13  14  15  16  17  18  19  20  21  22  24  25 0
 3-21G
 ****
 27  28  29  32  34  39  40  41  42  43  44  45  46  47  48  49 0
 3-21G
 ****


