%nproc=1
%NoSave
%Mem=1900MB
#P OB98/GEN NMR

erre ene a

0 1
  C      585.938    -482.396     118.690
  O      586.721    -481.581     117.827
  P      586.160    -480.117     117.488
  C      583.935    -479.281     116.451
  O      584.854    -480.348     116.575
  C      582.669    -479.746     115.727
  O      581.905    -480.599     116.609
  C      581.718    -478.617     115.329
  O      582.138    -477.994     114.119
  C      580.432    -479.399     115.138
  O      580.412    -480.005     113.830
  C      580.508    -480.475     116.236
  N      575.845    -479.997     118.150
  C      576.255    -480.354     116.881
  N      575.266    -480.650     116.005
  N      577.501    -480.408     116.503
  C      578.372    -480.120     117.492
  C      578.099    -479.750     118.802
  C      576.708    -479.650     119.188
  O      576.291    -479.268     120.291
  N      579.253    -479.555     119.515
  C      580.217    -479.845     118.665
  N      579.739    -480.165     117.413
  O      587.238    -479.551     116.452
  O      585.983    -479.209     118.659
  H      580.409    -479.267     113.171
  H      587.237    -478.577     116.475
  H      574.875    -479.973     118.400
  H      581.285    -479.836     118.911
  H      580.187    -481.449     115.841
  H      579.537    -478.758     115.196
  H      574.300    -480.750     116.268
  H      581.599    -477.888     116.139
  H      575.542    -480.955     115.066
  H      582.975    -480.328     114.847
  H      584.397    -478.467     115.865
  H      583.696    -478.897     117.451
  P      581.396    -476.612     113.762
  C      578.847    -476.124     113.719
  O      579.894    -477.008     113.384
  O      582.056    -476.191     112.354
  O      581.556    -475.534     114.789
  H      582.009    -475.229     112.231
  H      579.159    -475.079     113.607
  H      578.533    -476.302     114.751
  H      577.999    -476.309     113.043
  H      586.425    -483.338     118.830
  H      584.974    -482.555     118.253
  H      585.825    -481.908     119.636

 3  4  5  6  7  8  9  10  11  12  23  26  30  31  33  0
 6-311+G(2d,p)
 ****
 35  36  37  38 0
 6-311+G(2d,p)
 ****
 1  2  13  14  15  16  17  18  19  20  21  22  24  25  27  28  29 0
 3-21G
 ****
 32  34  39  40  41  42  43  44  45  46  47  48  49 0
 3-21G
 ****


