%nproc=1
%NoSave
%Mem=1900MB
#P OB98/GEN NMR

erre ene a

0 1
  C      128.696    -898.900    -354.794
  O      129.197    -898.390    -356.010
  H      128.690    -900.000    -354.850
  H      127.674    -898.560    -354.614
  H      129.343    -898.610    -353.963
  P      129.194    -896.800    -356.223
  C      131.537    -896.650    -355.140
  O      130.177    -896.250    -355.082
  C      132.437    -895.530    -354.626
  O      132.367    -894.370    -355.486
  C      132.086    -895.000    -353.238
  O      132.453    -895.880    -352.188
  C      132.895    -893.710    -353.230
  O      134.281    -894.010    -353.011
  C      132.652    -893.200    -354.670
  N      131.573    -892.230    -354.760
  C      131.732    -891.030    -354.046
  O      132.746    -890.830    -353.392
  N      130.722    -890.110    -354.078
  C      129.634    -890.350    -354.736
  N      128.644    -889.420    -354.689
  C      129.424    -891.590    -355.515
  C      130.421    -892.480    -355.474
  O      127.849    -896.140    -356.286
  O      130.073    -896.580    -357.543
  H      134.774    -893.180    -353.107
  H      130.094    -895.600    -357.719
  H      128.502    -891.750    -356.038
  H      130.336    -893.420    -356.014
  H      133.566    -892.740    -355.072
  H      132.589    -893.020    -352.444
  H      131.020    -894.740    -353.179
  H      133.478    -895.880    -354.669
  H      128.805    -888.600    -354.114
  H      131.774    -896.900    -356.176
  H      127.690    -889.650    -354.938
  H      131.699    -897.530    -354.509
  P      131.716    -895.710    -350.773
  C      130.720    -897.940    -349.858
  O      130.556    -896.830    -350.718
  O      130.910    -894.340    -350.949
  O      132.609    -895.710    -349.574
  H      131.428    -893.590    -350.603
  H      129.869    -898.583    -349.940
  H      130.813    -897.598    -348.848
  H      131.602    -898.479    -350.135

 6  7  8  9  10  11  12  13  14  15  16  26  30  31  32  33  35 0
 6-311+G(2d,p)
 ****
 37  38 0
 6-311+G(2d,p)
 ****
 1  2  3  4  5  17  18  19  20  21  22  23  24  25 0
 3-21G
 ****
 27  28  29  34  36  39  40  41  42  43  44  45  46 0
 3-21G
 ****


