%nproc=1
%NoSave
%Mem=1900MB
#P OB98/GEN NMR

erre ene a

0 1
  C      182.174      -5.388     135.747
  O      182.551      -4.032     135.868
  H      181.710      -5.710     136.683
  H      183.064      -5.998     135.571
  H      181.459      -5.527     134.932
  P      182.883      -3.240     134.513
  C      184.568      -3.540     132.561
  O      184.044      -4.067     133.770
  C      185.875      -4.243     132.193
  O      186.890      -3.882     133.179
  C      185.776      -5.778     132.165
  O      186.602      -6.276     131.105
  C      186.407      -6.178     133.486
  O      186.904      -7.513     133.466
  C      187.492      -5.113     133.616
  N      190.569      -7.335     136.900
  C      190.419      -7.525     135.542
  N      191.157      -8.502     134.972
  N      189.605      -6.821     134.800
  C      188.940      -5.862     135.492
  C      188.997      -5.577     136.834
  C      189.888      -6.376     137.649
  O      190.050      -6.270     138.860
  N      188.119      -4.572     137.158
  C      187.521      -4.269     136.019
  N      187.984      -5.027     134.981
  O      183.637      -1.933     135.050
  O      181.704      -2.896     133.668
  H      187.468      -7.617     132.672
  H      183.001      -1.199     135.143
  H      191.197      -7.916     137.429
  H      186.740      -3.532     135.899
  H      188.361      -5.319     132.976
  H      185.672      -6.094     134.295
  H      191.827      -9.066     135.472
  H      184.755      -6.156     132.048
  H      191.087      -8.626     133.969
  H      186.218      -3.860     131.225
  H      184.764      -2.470     132.691
  H      183.829      -3.665     131.762
  P      185.900      -7.106     129.927
  C      185.300      -9.591     129.438
  O      185.833      -8.649     130.358
  O      187.004      -7.096     128.769
  O      184.609      -6.518     129.459
  H      186.569      -7.064     127.897
  H      185.325     -10.568     129.873
  H      185.885      -9.585     128.542
  H      184.289      -9.330     129.206

 6  7  8  9  10  11  12  13  14  15  26  29  33  34 0
 6-311+G(2d,p)
 ****
 36  38  39  40  41 0
 6-311+G(2d,p)
 ****
 1  2  3  4  5  16  17  18  19  20  21  22  23  24  25 0
 3-21G
 ****
 27  28  30  31  32  35  37  42  43  44  45  46  47 0
 3-21G
 ****
 48  49 0
 3-21G
 ****


