%nproc=1
%NoSave
%Mem=1900MB
#P OB98/GEN NMR

erre ene a

0 1
  C     -234.353     548.394    -281.228
  O     -234.666     549.749    -281.497
  H     -234.345     547.839    -282.173
  H     -235.109     547.961    -280.571
  H     -233.362     548.307    -280.766
  P     -234.479     550.837    -280.333
  C     -233.102     552.455    -281.808
  O     -234.297     552.261    -281.055
  C     -233.250     553.643    -282.765
  O     -234.233     553.288    -283.792
  C     -233.738     554.939    -282.087
  O     -233.153     556.042    -282.796
  C     -235.237     554.858    -282.352
  O     -235.876     556.086    -282.110
  C     -235.219     554.339    -283.793
  N     -236.516     553.847    -284.251
  C     -237.462     554.796    -284.638
  O     -237.251     556.013    -284.633
  N     -238.677     554.301    -285.022
  C     -239.036     552.986    -285.051
  O     -240.135     552.599    -285.428
  C     -238.006     552.031    -284.603
  C     -236.814     552.497    -284.225
  O     -233.447     550.517    -279.304
  O     -235.944     550.951    -279.685
  H     -235.986     550.395    -278.882
  H     -235.894     556.274    -281.144
  H     -239.372     554.979    -285.309
  H     -238.267     550.980    -284.596
  H     -236.028     551.823    -283.892
  H     -234.867     555.117    -284.480
  H     -235.701     554.124    -281.681
  H     -233.468     554.999    -281.031
  H     -232.292     553.801    -283.281
  H     -232.904     551.535    -282.372
  H     -232.269     552.635    -281.113
  P     -231.957     556.940    -282.207
  C     -230.867     557.328    -284.517
  O     -231.416     557.931    -283.352
  O     -230.872     556.134    -281.557
  O     -232.647     557.917    -281.141
  H     -232.032     558.061    -280.392
  H     -230.546     558.090    -285.196
  H     -231.611     556.721    -284.989
  H     -230.031     556.719    -284.243

 6  7  8  9  10  11  12  13  14  15  16  27  31  32  33  34  35 0
 6-311+G(2d,p)
 ****
 36  37 0
 6-311+G(2d,p)
 ****
 1  2  3  4  5  17  18  19  20  21  22  23  24  25 0
 3-21G
 ****
 26  28  29  30  38  39  40  41  42  43  44  45 0
 3-21G
 ****


