%nproc=1
%NoSave
%Mem=1900MB
#P OB98/GEN NMR

erre ene a

0 1
  C      655.308     125.666     368.065
  O      656.292     126.057     367.125
  H      655.397     124.585     368.238
  H      654.311     125.875     367.671
  H      655.456     126.189     369.015
  P      656.452     127.625     366.861
  C      655.243     127.326     364.547
  O      655.346     128.041     365.773
  C      653.784     127.081     364.195
  O      653.120     126.317     365.225
  C      652.950     128.357     364.111
  O      653.243     129.121     362.964
  C      651.540     127.761     364.102
  O      651.195     127.254     362.801
  C      651.695     126.602     365.122
  N      651.113     126.920     366.423
  C      649.718     126.833     366.499
  O      649.060     126.488     365.506
  N      649.104     127.153     367.680
  C      649.814     127.513     368.706
  N      649.142     127.826     369.847
  C      651.290     127.590     368.679
  C      651.864     127.301     367.510
  O      657.816     127.702     366.023
  O      656.428     128.482     368.084
  H      651.293     128.004     362.187
  H      657.823     127.130     365.235
  H      651.833     127.894     369.555
  H      652.949     127.329     367.403
  H      651.211     125.694     364.739
  H      650.785     128.503     364.366
  H      653.056     128.953     365.022
  H      653.738     126.508     363.263
  H      648.127     127.778     369.823
  H      655.795     126.389     364.595
  H      649.580     128.155     370.685
  H      655.715     127.942     363.772
  P      653.712     130.656     363.108
  C      651.960     131.366     361.353
  O      652.445     131.547     362.687
  O      654.983     130.996     362.405
  O      653.767     130.876     364.695
  H      652.917     130.729     365.154
  H      651.120     132.008     361.189
  H      651.662     130.347     361.217
  H      652.735     131.607     360.656

 6  7  8  9  10  11  12  13  14  15  16  26  30  31  32  33  35 0
 6-311+G(2d,p)
 ****
 37  38 0
 6-311+G(2d,p)
 ****
 1  2  3  4  5  17  18  19  20  21  22  23  24  25 0
 3-21G
 ****
 27  28  29  34  36  39  40  41  42  43  44  45  46 0
 3-21G
 ****


