%nproc=1
%NoSave
%Mem=1900MB
#P OB98/GEN NMR

erre ene a

0 1
  C       60.848    -583.122    -353.223
  O       61.276    -582.728    -351.936
  H       60.331    -584.087    -353.147
  H       61.703    -583.236    -353.892
  H       60.154    -582.383    -353.635
  P       62.153    -581.384    -351.858
  C       60.160    -580.368    -350.505
  O       61.558    -580.623    -350.568
  C       59.717    -580.321    -349.045
  O       60.030    -581.554    -348.375
  C       60.380    -579.228    -348.225
  O       59.814    -577.943    -348.451
  C       60.110    -579.728    -346.811
  O       58.728    -579.463    -346.475
  C       60.357    -581.241    -346.989
  N       61.729    -581.632    -346.680
  C       61.899    -582.596    -345.673
  O       60.925    -583.069    -345.086
  N       63.176    -582.977    -345.340
  C       64.197    -582.458    -345.958
  N       65.444    -582.863    -345.562
  C       64.056    -581.460    -347.030
  C       62.820    -581.093    -347.344
  O       61.594    -580.495    -353.072
  O       63.637    -581.566    -351.859
  H       58.182    -579.898    -347.156
  H       61.984    -579.586    -353.030
  H       64.953    -581.050    -347.507
  H       62.642    -580.367    -348.117
  H       59.676    -581.828    -346.358
  H       60.720    -579.242    -346.057
  H       61.466    -579.205    -348.383
  H       58.612    -580.217    -349.028
  H       65.499    -583.507    -344.783
  H       59.637    -581.171    -351.036
  H       66.295    -582.393    -345.861
  H       59.928    -579.414    -350.988
  P       60.770    -576.805    -349.081
  C       59.174    -576.399    -351.090
  O       59.838    -575.846    -349.965
  O       61.616    -577.609    -350.187
  O       61.653    -576.108    -348.097
  H       62.538    -577.319    -350.212
  H       58.596    -575.639    -351.572
  H       58.528    -577.189    -350.770
  H       59.898    -576.786    -351.777

 6  7  8  9  10  11  12  13  14  15  16  26  30  31  32  33  35 0
 6-311+G(2d,p)
 ****
 37  38 0
 6-311+G(2d,p)
 ****
 1  2  3  4  5  17  18  19  20  21  22  23  24  25 0
 3-21G
 ****
 27  28  29  34  36  39  40  41  42  43  44  45  46 0
 3-21G
 ****


