%nproc=1
%NoSave
%Mem=1900MB
#P OB98/GEN NMR

erre ene a

0 1
  C       32.520      68.848    -181.460
  O       33.751      69.567    -181.542
  P       34.712      69.310    -182.799
  C       34.137      69.861    -185.248
  O       34.346      70.377    -183.938
  C       34.208      70.979    -186.289
  O       33.245      72.017    -186.022
  C       35.556      71.680    -186.327
  O       36.533      70.868    -186.956
  C       35.205      72.963    -187.065
  O       35.186      72.751    -188.487
  C       33.775      73.250    -186.555
  N       33.721      74.323    -185.573
  C       34.202      75.566    -185.996
  O       34.675      75.699    -187.125
  N       34.149      76.623    -185.120
  C       33.665      76.450    -183.928
  N       33.634      77.532    -183.106
  C       33.160      75.152    -183.441
  C       33.225      74.140    -184.304
  O       34.807      67.893    -183.259
  O       36.133      69.841    -182.271
  H       34.506      72.067    -188.648
  H       36.841      69.333    -182.711
  H       32.762      75.060    -182.441
  H       32.877      73.152    -184.027
  H       33.123      73.531    -187.392
  H       35.930      73.757    -186.868
  H       35.877      71.919    -185.305
  H       33.987      70.543    -187.274
  H       33.998      78.408    -183.461
  H       33.163      69.369    -185.296
  H       33.233      77.511    -182.180
  H       34.890      69.089    -185.447
  P       37.783      70.391    -186.074
  C       38.110      68.628    -184.203
  O       37.374      69.028    -185.342
  O       37.808      71.459    -184.880
  O       39.089      70.365    -186.802
  H       38.729      71.625    -184.609
  H       37.526      67.883    -183.655
  H       38.310      69.473    -183.540
  H       39.054      68.175    -184.515
  H       32.000      69.132    -180.569
  H       32.721      67.797    -181.436
  H       31.916      69.076    -182.313

 3  4  5  6  7  8  9  10  11  12  13  23  27  28  29  30  32 0
 6-311+G(2d,p)
 ****
 34  35 0
 6-311+G(2d,p)
 ****
 1  2  14  15  16  17  18  19  20  21  22  24  25  26 0
 3-21G
 ****
 31  33  36  37  38  39  40  41  42  43  44  45  46 0
 3-21G
 ****


