%nproc=1
%NoSave
%Mem=1900MB
#P OB98/GEN NMR

erre ene a

0 1
  C     -224.406     261.440       9.830
  O     -223.958     262.684      10.316
  P     -224.444     263.328      11.693
  C     -226.332     264.798      10.630
  O     -225.984     263.758      11.538
  C     -227.061     265.942      11.351
  O     -228.341     265.446      11.830
  C     -226.273     266.414      12.588
  O     -226.251     267.826      12.760
  C     -226.884     265.583      13.716
  O     -226.662     266.135      15.009
  C     -228.338     265.484      13.266
  N     -229.678     262.751      17.349
  C     -229.132     264.024      17.290
  N     -228.742     264.551      18.467
  N     -228.967     264.686      16.177
  C     -229.309     263.987      15.071
  C     -229.855     262.721      15.001
  C     -230.061     262.009      16.238
  O     -230.424     260.836      16.334
  N     -230.003     262.302      13.702
  C     -229.514     263.292      12.986
  N     -229.058     264.323      13.768
  O     -223.514     264.288      12.355
  O     -224.558     262.025      12.645
  H     -227.057     265.529      15.657
  H     -224.319     262.308      13.548
  H     -229.705     262.254      18.237
  H     -229.452     263.310      11.901
  H     -228.917     266.356      13.588
  H     -226.398     264.611      13.703
  H     -228.718     264.009      19.324
  H     -225.216     266.160      12.494
  H     -228.129     265.360      18.427
  H     -227.252     266.752      10.639
  H     -226.997     264.349       9.879
  H     -225.443     265.168      10.108
  P     -225.123     268.742      13.429
  C     -226.490     269.292      15.536
  O     -225.308     268.702      15.014
  O     -225.541     270.241      13.061
  O     -223.735     268.463      12.960
  H     -224.730     270.759      12.852
  H     -226.374     269.438      16.608
  H     -227.336     268.614      15.360
  H     -226.687     270.253      15.059
  H     -223.934     261.233       8.892
  H     -225.467     261.470       9.696
  H     -224.157     260.672      10.532

 3  4  5  6  7  8  9  10  11  12  23  26  30  31 0
 6-311+G(2d,p)
 ****
 33  35  36  37  38 0
 6-311+G(2d,p)
 ****
 1  2  13  14  15  16  17  18  19  20  21  22  24  25 0
 3-21G
 ****
 27  28  29  32  34  39  40  41  42  43  44  45  46  47  48  49 0
 3-21G
 ****


