%nproc=1
%NoSave
%Mem=1900MB
#P OB98/GEN NMR

erre ene a

0 1
  C       18.484    -212.820    -164.977
  O       17.745    -212.840    -166.214
  P       18.544    -212.724    -167.603
  C       18.921    -215.269    -168.032
  O       18.344    -214.052    -168.481
  C       19.017    -216.295    -169.174
  O       17.700    -216.517    -169.759
  C       19.952    -215.884    -170.320
  O       20.532    -217.089    -170.845
  C       18.989    -215.288    -171.332
  O       19.522    -215.233    -172.649
  C       17.803    -216.244    -171.173
  N       16.537    -215.719    -171.697
  C       16.198    -216.031    -173.007
  O       16.913    -216.661    -173.782
  N       14.982    -215.555    -173.437
  C       14.119    -214.784    -172.715
  O       13.060    -214.364    -173.166
  C       14.542    -214.465    -171.344
  C       15.710    -214.937    -170.908
  O       20.071    -212.860    -167.120
  O       18.355    -211.440    -168.347
  H       18.769    -215.295    -173.266
  H       20.614    -212.176    -167.556
  H       14.712    -215.781    -174.379
  H       13.884    -213.862    -170.735
  H       16.037    -214.724    -169.894
  H       18.030    -217.193    -171.663
  H       18.738    -214.263    -171.032
  H       20.737    -215.191    -170.008
  H       19.332    -217.255    -168.742
  H       18.304    -215.689    -167.233
  H       19.917    -215.065    -167.629
  P       22.134    -217.254    -170.793
  C       23.015    -218.846    -168.909
  O       22.441    -218.705    -170.190
  O       22.477    -216.271    -169.570
  O       22.834    -216.889    -172.058
  H       21.883    -216.389    -168.809
  H       22.580    -218.135    -168.197
  H       24.095    -218.687    -168.969
  H       22.826    -219.859    -168.546
  H       17.805    -212.906    -164.154
  H       19.024    -211.899    -164.899
  H       19.172    -213.639    -164.959

 3  4  5  6  7  8  9  10  11  12  13  23  28  29  30  31  32 0
 6-311+G(2d,p)
 ****
 33  34 0
 6-311+G(2d,p)
 ****
 1  2  14  15  16  17  18  19  20  21  22  24  25  26 0
 3-21G
 ****
 27  35  36  37  38  39  40  41  42  43  44  45 0
 3-21G
 ****


