%nproc=1
%NoSave
%Mem=1900MB
#P OB98/GEN NMR

erre ene a

0 1
  C      -88.719     164.490     417.433
  O      -88.306     165.153     418.611
  H      -89.478     163.750     417.693
  H      -87.871     163.979     416.966
  H      -89.153     165.210     416.732
  P      -87.146     166.250     418.451
  C      -84.791     166.501     419.470
  O      -85.901     165.638     419.262
  C      -83.498     165.690     419.569
  O      -83.650     164.707     420.621
  C      -83.143     164.941     418.278
  O      -81.721     164.934     418.121
  C      -83.626     163.528     418.559
  O      -82.959     162.560     417.754
  C      -83.350     163.415     420.058
  N      -83.266     159.491     423.311
  C      -82.352     160.444     423.012
  N      -82.471     161.474     422.149
  C      -83.701     161.493     421.599
  C      -84.731     160.594     421.799
  C      -84.476     159.543     422.697
  N      -85.382     158.550     422.977
  N      -85.822     160.931     421.018
  C      -85.454     162.016     420.361
  N      -84.172     162.384     420.668
  O      -87.520     167.644     418.821
  O      -86.701     166.042     416.928
  H      -82.016     162.530     418.023
  H      -86.587     165.096     416.715
  H      -81.403     160.365     423.536
  H      -86.070     162.562     419.650
  H      -82.305     163.173     420.280
  H      -84.697     163.454     418.354
  H      -83.614     165.368     417.393
  H      -82.684     166.363     419.875
  H      -84.932     167.080     420.392
  H      -85.118     157.835     423.635
  H      -86.293     158.570     422.538
  H      -84.743     167.199     418.625
  P      -81.065     165.830     416.967
  C      -80.307     165.556     414.514
  O      -80.805     164.906     415.675
  O      -79.901     166.669     417.382
  O      -82.291     166.748     416.489
  H      -81.971     167.659     416.345
  H      -80.178     164.838     413.731
  H      -79.366     166.014     414.737
  H      -81.002     166.306     414.199

 6  7  8  9  10  11  12  13  14  15  25  28  32  33  34  35 0
 6-311+G(2d,p)
 ****
 36  39  40 0
 6-311+G(2d,p)
 ****
 1  2  3  4  5  16  17  18  19  20  21  22  23  24 0
 3-21G
 ****
 26  27  29  30  31  37  38  41  42  43  44  45  46  47 0
 3-21G
 ****
 48 0
 3-21G
 ****


