%nproc=1
%NoSave
%Mem=1900MB
#P OB98/GEN NMR

erre ene a

0 1
  C      -42.989     260.862    -194.122
  O      -42.278     260.136    -193.145
  H      -42.282     261.227    -194.871
  H      -43.481     261.719    -193.654
  H      -43.736     260.238    -194.620
  P      -43.078     259.123    -192.202
  C      -45.383     259.243    -191.044
  O      -44.211     259.954    -191.422
  C      -46.456     260.178    -190.488
  O      -46.919     261.063    -191.532
  C      -47.686     259.423    -189.977
  O      -47.591     258.990    -188.627
  C      -48.788     260.465    -190.140
  O      -48.895     261.303    -188.978
  C      -48.323     261.285    -191.350
  N      -52.228     262.357    -194.473
  C      -51.965     262.858    -193.212
  N      -52.875     263.722    -192.716
  N      -50.915     262.522    -192.511
  C      -50.146     261.575    -193.098
  C      -50.319     260.990    -194.332
  C      -51.442     261.422    -195.134
  O      -51.711     261.021    -196.261
  N      -49.360     260.036    -194.576
  C      -48.665     259.987    -193.455
  N      -49.054     260.957    -192.562
  O      -42.029     258.788    -191.037
  O      -43.549     257.862    -192.864
  H      -49.183     260.748    -188.229
  H      -42.177     257.881    -190.713
  H      -53.035     262.671    -194.978
  H      -47.846     259.305    -193.257
  H      -48.459     262.361    -191.179
  H      -49.761     259.988    -190.275
  H      -53.742     263.947    -193.178
  H      -47.918     258.573    -190.627
  H      -52.820     263.965    -191.725
  H      -46.016     260.808    -189.705
  H      -45.080     258.526    -190.282
  H      -45.772     258.675    -191.894
  P      -48.509     257.803    -188.081
  C      -51.087     257.308    -188.047
  O      -50.036     258.234    -188.237
  O      -48.266     257.861    -186.501
  O      -48.211     256.450    -188.643
  H      -47.614     257.192    -186.226
  H      -52.026     257.798    -188.198
  H      -51.044     256.919    -187.051
  H      -50.987     256.506    -188.748

 6  7  8  9  10  11  12  13  14  15  26  29  33  34 0
 6-311+G(2d,p)
 ****
 36  38  39  40  41 0
 6-311+G(2d,p)
 ****
 1  2  3  4  5  16  17  18  19  20  21  22  23  24  25 0
 3-21G
 ****
 27  28  30  31  32  35  37  42  43  44  45  46  47 0
 3-21G
 ****
 48  49 0
 3-21G
 ****


