%nproc=1
%NoSave
%Mem=1900MB
#P OB98/GEN NMR

erre ene a

0 1
  C     -138.785     290.249     256.287
  O     -140.081     290.658     256.666
  H     -138.849     289.740     255.322
  H     -138.376     289.552     257.021
  H     -138.124     291.118     256.182
  P     -140.296     291.404     258.074
  C     -141.969     293.191     258.852
  O     -141.748     292.094     257.975
  C     -143.166     294.026     258.397
  O     -142.883     294.606     257.093
  C     -144.474     293.226     258.274
  O     -145.545     293.933     258.901
  C     -144.716     293.159     256.771
  O     -146.080     292.967     256.432
  C     -144.098     294.494     256.324
  N     -143.858     294.535     254.886
  C     -144.735     295.330     254.135
  O     -145.646     295.946     254.696
  N     -144.596     295.354     252.778
  C     -143.690     294.619     252.201
  N     -143.627     294.670     250.846
  C     -142.761     293.747     252.959
  C     -142.893     293.756     254.280
  O     -139.183     292.324     258.464
  O     -140.529     290.226     259.130
  H     -146.171     293.032     255.461
  H     -140.320     290.557     260.035
  H     -142.029     293.149     252.431
  H     -142.262     293.151     254.916
  H     -144.750     295.340     256.593
  H     -144.134     292.329     256.349
  H     -144.400     292.225     258.708
  H     -143.282     294.874     259.087
  H     -144.284     295.274     250.369
  H     -141.055     293.806     258.878
  H     -142.981     294.127     250.293
  H     -142.164     292.796     259.857
  P     -146.111     293.300     260.263
  C     -147.176     294.231     262.443
  O     -146.860     294.464     261.079
  O     -144.796     293.010     261.120
  O     -146.911     292.058     260.052
  H     -144.644     292.048     261.184
  H     -147.669     295.091     262.847
  H     -146.276     294.045     262.991
  H     -147.822     293.381     262.519

 6  7  8  9  10  11  12  13  14  15  16  26  30  31  32  33  35 0
 6-311+G(2d,p)
 ****
 37  38 0
 6-311+G(2d,p)
 ****
 1  2  3  4  5  17  18  19  20  21  22  23  24  25 0
 3-21G
 ****
 27  28  29  34  36  39  40  41  42  43  44  45  46 0
 3-21G
 ****


