%nproc=1
%NoSave
%Mem=1900MB
#P OB98/GEN NMR

erre ene a

0 1
  C      -60.843    -804.056       3.725
  O      -61.269    -804.371       5.037
  P      -61.636    -803.207       6.082
  C      -62.796    -804.878       7.665
  O      -61.755    -803.939       7.511
  C      -62.495    -805.819       8.827
  O      -61.555    -806.864       8.444
  C      -61.823    -805.148      10.023
  O      -62.574    -804.193      10.733
  C      -61.314    -806.347      10.797
  O      -62.352    -806.938      11.596
  C      -60.894    -807.321       9.649
  N      -59.436    -807.362       9.481
  C      -58.737    -808.000      10.509
  O      -59.275    -808.502      11.505
  N      -57.370    -808.019      10.380
  C      -56.660    -807.461       9.358
  O      -55.436    -807.482       9.328
  C      -57.457    -806.786       8.310
  C      -58.799    -806.776       8.421
  O      -62.812    -802.381       5.715
  O      -60.263    -802.391       6.221
  H      -62.710    -806.239      12.162
  H      -59.508    -802.919       6.549
  H      -56.854    -808.472      11.114
  H      -56.915    -806.337       7.495
  H      -59.396    -806.293       7.671
  H      -61.261    -808.338       9.847
  H      -60.495    -806.089      11.480
  H      -60.937    -804.612       9.640
  H      -63.430    -806.331       9.124
  H      -62.865    -805.477       6.738
  H      -63.748    -804.374       7.808
  P      -61.921    -803.129      11.730
  C      -64.007    -801.642      12.063
  O      -63.075    -802.519      12.659
  O      -60.928    -802.155      11.143
  O      -61.145    -804.083      12.780
  H      -60.347    -803.635      13.118
  H      -64.711    -801.277      12.840
  H      -64.605    -802.163      11.304
  H      -63.516    -800.772      11.632
  H      -60.648    -804.960       3.187
  H      -59.950    -803.469       3.771
  H      -61.609    -803.501       3.225

 3  4  5  6  7  8  9  10  11  12  13  23  28  29  30  31  32 0
 6-311+G(2d,p)
 ****
 33  34 0
 6-311+G(2d,p)
 ****
 1  2  14  15  16  17  18  19  20  21  22  24  25  26  27 0
 3-21G
 ****
 35  36  37  38  39  40  41  42  43  44  45 0
 3-21G
 ****


