%nproc=1
%NoSave
%Mem=1900MB
#P OB98/GEN NMR

erre ene a

0 1
  C      685.392     303.914     -92.946
  O      686.457     304.797     -92.661
  H      684.735     303.866     -92.072
  H      685.775     302.908     -93.150
  H      684.816     304.281     -93.798
  P      687.563     304.978     -93.810
  C      689.086     303.031     -93.029
  O      688.174     303.509     -94.017
  C      689.631     301.659     -93.424
  O      688.562     300.699     -93.499
  C      690.317     301.624     -94.788
  O      691.667     302.063     -94.677
  C      690.242     300.142     -95.116
  O      691.303     299.440     -94.432
  C      688.877     299.733     -94.537
  N      686.160     296.785     -97.733
  C      687.308     296.555     -97.065
  N      688.000     297.402     -96.268
  C      687.389     298.600     -96.203
  C      686.215     298.977     -96.841
  C      685.583     298.005     -97.630
  N      684.408     298.244     -98.318
  N      685.894     300.282     -96.534
  C      686.834     300.665     -95.687
  N      687.778     299.691     -95.480
  O      688.551     306.078     -93.587
  O      686.634     305.153     -95.104
  H      691.129     298.484     -94.559
  H      685.881     304.538     -95.067
  H      687.723     295.557     -97.177
  H      686.850     301.618     -95.177
  H      688.919     298.742     -94.059
  H      690.363     299.941     -96.185
  H      689.758     302.191     -95.543
  H      690.317     301.327     -92.632
  H      688.590     302.960     -92.057
  H      684.134     297.563     -99.014
  H      684.066     299.193     -98.340
  H      689.901     303.758     -92.956
  P      692.584     302.263     -95.978
  C      694.107     300.270     -95.412
  O      693.148     300.801     -96.314
  O      693.607     303.338     -95.850
  O      691.541     302.536     -97.160
  H      692.001     302.923     -97.924
  H      694.405     299.296     -95.741
  H      693.677     300.200     -94.435
  H      694.962     300.913     -95.381

 6  7  8  9  10  11  12  13  14  15  25  28  32  33  34  35 0
 6-311+G(2d,p)
 ****
 36  39  40 0
 6-311+G(2d,p)
 ****
 1  2  3  4  5  16  17  18  19  20  21  22  23  24 0
 3-21G
 ****
 26  27  29  30  31  37  38  41  42  43  44  45  46  47 0
 3-21G
 ****
 48 0
 3-21G
 ****


