%nproc=1
%NoSave
%Mem=1900MB
#P OB98/GEN NMR

erre ene a

0 1
  C      100.411     101.217     -56.585
  O      100.051     100.770     -57.874
  H      100.681     102.275     -56.643
  H      101.273     100.655     -56.220
  H       99.572     101.105     -55.893
  P       99.589      99.237     -58.016
  C       97.241      99.670     -56.977
  O       97.985      99.297     -58.130
  C       95.858     100.189     -57.379
  O       95.977     101.560     -57.829
  C       95.212      99.381     -58.506
  O       93.830      99.173     -58.208
  C       95.370     100.262     -59.732
  O       94.367     100.008     -60.715
  C       95.349     101.668     -59.121
  N       96.040     102.640     -59.966
  C       95.239     103.531     -60.685
  O       94.010     103.467     -60.600
  N       95.839     104.434     -61.524
  C       97.126     104.412     -61.679
  N       97.660     105.320     -62.541
  C       98.008     103.458     -60.977
  C       97.406     102.613     -60.142
  O       99.841      98.651     -56.550
  O      100.262      98.468     -59.103
  H       94.439     100.701     -61.407
  H       99.801      97.664     -56.545
  H       99.073     103.468     -61.151
  H       97.973     101.876     -59.585
  H       94.316     102.008     -58.966
  H       96.347     100.071     -60.193
  H       95.687      98.413     -58.662
  H       95.222     100.206     -56.487
  H       97.025     105.950     -63.012
  H       97.786     100.452     -56.442
  H       98.645     105.372     -62.760
  H       97.130      98.798     -56.325
  P       93.353      97.642     -58.119
  C       93.587      97.371     -55.552
  O       92.708      97.419     -56.666
  O       94.727      96.825     -58.062
  O       92.487      97.220     -59.261
  H       94.948      96.468     -58.942
  H       93.021      97.219     -54.657
  H       94.124      98.294     -55.481
  H       94.279      96.565     -55.678

 6  7  8  9  10  11  12  13  14  15  16  26  30  31  32  33  35 0
 6-311+G(2d,p)
 ****
 37  38 0
 6-311+G(2d,p)
 ****
 1  2  3  4  5  17  18  19  20  21  22  23  24  25 0
 3-21G
 ****
 27  28  29  34  36  39  40  41  42  43  44  45  46 0
 3-21G
 ****


