%nproc=1
%NoSave
%Mem=1900MB
#P OB98/GEN NMR

erre ene a

0 1
  C     -313.491    -134.752    -173.694
  O     -312.960    -134.120    -172.530
  P     -311.375    -134.135    -172.312
  C     -311.096    -134.456    -169.762
  O     -311.052    -133.538    -170.854
  C     -310.856    -133.723    -168.432
  O     -309.565    -133.057    -168.489
  C     -311.875    -132.623    -168.104
  O     -313.053    -132.990    -167.384
  C     -311.063    -131.723    -167.182
  O     -311.090    -132.249    -165.839
  C     -309.645    -131.824    -167.739
  N     -308.518    -126.830    -167.796
  C     -308.829    -127.677    -166.787
  N     -309.117    -128.993    -166.854
  C     -309.047    -129.429    -168.125
  C     -308.739    -128.688    -169.250
  C     -308.470    -127.323    -169.054
  N     -308.161    -126.459    -170.084
  N     -308.775    -129.478    -170.380
  C     -309.119    -130.676    -169.941
  N     -309.281    -130.700    -168.581
  O     -310.551    -133.582    -173.426
  O     -311.072    -135.703    -172.106
  H     -311.988    -132.607    -165.702
  H     -310.219    -135.915    -172.531
  H     -308.852    -127.235    -165.790
  H     -309.259    -131.544    -170.566
  H     -308.887    -131.882    -166.944
  H     -311.461    -130.707    -167.129
  H     -312.158    -132.070    -169.011
  H     -310.821    -134.457    -167.618
  H     -310.330    -135.226    -169.901
  H     -308.025    -125.489    -169.863
  H     -308.176    -126.796    -171.036
  H     -312.061    -134.959    -169.792
  P     -314.392    -132.116    -167.475
  C     -314.763    -132.830    -164.983
  O     -315.315    -132.630    -166.266
  O     -315.057    -132.110    -168.806
  O     -313.904    -130.677    -166.969
  H     -313.663    -130.646    -166.024
  H     -315.583    -132.964    -164.269
  H     -314.167    -131.975    -164.679
  H     -314.148    -133.736    -164.985
  H     -314.557    -134.658    -173.696
  H     -313.225    -135.788    -173.690
  H     -313.090    -134.284    -174.568

 3  4  5  6  7  8  9  10  11  12  22  25  29  30  31  32 0
 6-311+G(2d,p)
 ****
 33  36  37 0
 6-311+G(2d,p)
 ****
 1  2  13  14  15  16  17  18  19  20  21  23  24  26 0
 3-21G
 ****
 27  28  34  35  38  39  40  41  42  43  44  45  46  47  48 0
 3-21G
 ****


