%nproc=1
%NoSave
%Mem=1900MB
#P OB98/GEN NMR

erre ene a

0 1
  C      606.845     -43.053     -57.960
  O      607.105     -42.183     -56.873
  P      608.450     -41.302     -56.934
  C      609.621     -42.519     -54.955
  O      609.617     -42.239     -56.351
  C      610.820     -43.391     -54.591
  O      610.672     -44.702     -55.164
  C      612.146     -42.857     -55.125
  O      612.605     -41.785     -54.326
  C      613.021     -44.104     -55.048
  O      613.611     -44.246     -53.750
  C      612.009     -45.242     -55.325
  N      612.184     -45.848     -56.628
  C      613.418     -46.476     -56.849
  O      614.283     -46.480     -55.963
  N      613.649     -47.058     -58.068
  C      612.739     -47.004     -59.001
  N      613.021     -47.601     -60.182
  C      611.432     -46.331     -58.814
  C      611.225     -45.782     -57.616
  O      608.228     -40.218     -55.784
  O      608.724     -40.677     -58.267
  H      612.881     -44.087     -53.104
  H      608.732     -39.404     -55.970
  H      610.710     -46.320     -59.610
  H      610.301     -45.268     -57.391
  H      612.110     -46.032     -54.560
  H      613.842     -44.066     -55.771
  H      612.044     -42.542     -56.164
  H      610.858     -43.486     -53.494
  H      613.928     -48.039     -60.285
  H      608.705     -43.057     -54.687
  H      612.370     -47.638     -60.955
  H      609.639     -41.573     -54.404
  P      613.843     -40.924     -54.884
  C      615.129     -42.007     -52.950
  O      615.147     -41.659     -54.319
  O      613.773     -39.613     -53.956
  O      613.842     -40.588     -56.332
  H      614.424     -38.950     -54.280
  H      615.996     -42.637     -52.731
  H      614.223     -42.573     -52.709
  H      615.188     -41.116     -52.333
  H      605.926     -43.573     -57.789
  H      607.643     -43.760     -58.050
  H      606.770     -42.483     -58.863

 3  4  5  6  7  8  9  10  11  12  13  21  23  27  28  29  30  32 0
 6-311+G(2d,p)
 ****
 34  35 0
 6-311+G(2d,p)
 ****
 1  2  14  15  16  17  18  19  20  22  24  25  26 0
 3-21G
 ****
 31  33  36  37  38  39  40  41  42  43  44  45  46 0
 3-21G
 ****


