%nproc=1
%NoSave
%Mem=1900MB
#P OB98/GEN NMR

erre ene a

0 1
  C       41.049      89.893      -6.962
  O       42.155      90.761      -6.705
  P       43.597      90.462      -7.345
  C       46.041      90.298      -6.598
  O       44.686      90.369      -6.166
  C       47.054      90.420      -5.451
  O       47.068      91.764      -4.911
  C       46.818      89.466      -4.279
  O       48.115      89.138      -3.772
  C       46.057      90.342      -3.298
  O       46.085      89.833      -1.970
  C       46.759      91.688      -3.509
  N       45.941      92.816      -3.071
  C       45.906      93.078      -1.701
  O       46.500      92.343      -0.911
  N       45.157      94.140      -1.247
  C       44.433      94.815      -2.083
  N       43.694      95.837      -1.573
  C       44.371      94.519      -3.528
  C       45.150      93.522      -3.947
  O       43.980      91.365      -8.474
  O       43.480      88.947      -7.857
  H       47.017      89.644      -1.732
  H       44.059      88.824      -8.634
  H       43.729      95.092      -4.184
  H       45.182      93.231      -4.992
  H       47.709      91.720      -2.959
  H       45.005      90.409      -3.604
  H       46.266      88.564      -4.554
  H       48.050      90.243      -5.879
  H       43.745      95.992      -0.571
  H       46.216      91.103      -7.322
  H       43.012      96.351      -2.111
  H       46.193      89.351      -7.130
  P       48.691      87.647      -3.811
  C       48.797      85.670      -2.188
  O       48.196      86.922      -2.472
  O       50.161      87.548      -4.063
  O       47.853      86.909      -4.962
  H       48.326      86.103      -5.239
  H       48.545      85.378      -1.164
  H       49.890      85.733      -2.281
  H       48.416      84.912      -2.877
  H       40.183      90.258      -6.451
  H       41.280      88.908      -6.613
  H       40.856      89.863      -8.014

 3  4  5  6  7  8  9  10  11  12  13  23  27  28  29  30  32 0
 6-311+G(2d,p)
 ****
 34  35 0
 6-311+G(2d,p)
 ****
 1  2  14  15  16  17  18  19  20  21  22  24  25  26 0
 3-21G
 ****
 31  33  36  37  38  39  40  41  42  43  44  45  46 0
 3-21G
 ****


