%nproc=1
%NoSave
%Mem=1900MB
#P OB98/GEN NMR

erre ene a

0 1
  C      -36.093      93.587     263.050
  O      -36.627      94.834     262.652
  H      -36.919      92.881     263.182
  H      -35.567      93.689     264.004
  H      -35.416      93.192     262.288
  P      -35.618      96.008     262.241
  C      -35.500      96.902     264.663
  O      -34.774      96.382     263.553
  C      -34.551      97.154     265.833
  O      -33.970      95.908     266.280
  C      -33.372      98.060     265.487
  O      -33.771      99.419     265.425
  C      -32.414      97.729     266.620
  O      -32.761      98.444     267.814
  C      -32.653      96.210     266.796
  N      -31.630      95.395     266.138
  C      -30.413      95.268     266.807
  O      -30.169      95.826     267.878
  N      -29.470      94.494     266.183
  C      -29.579      93.947     264.936
  O      -28.665      93.340     264.383
  C      -30.872      94.134     264.267
  C      -31.825      94.839     264.887
  O      -36.231      97.170     261.533
  O      -34.536      95.268     261.320
  H      -31.992      98.371     268.415
  H      -34.698      95.495     260.382
  H      -28.578      94.399     266.645
  H      -31.001      93.705     263.282
  H      -32.782      94.991     264.407
  H      -32.665      95.951     267.860
  H      -31.384      97.985     266.377
  H      -32.924      97.744     264.539
  H      -35.134      97.573     266.668
  H      -36.261      96.170     264.959
  H      -35.999      97.830     264.359
  P      -33.601     100.237     264.063
  C      -31.438     101.476     264.695
  O      -32.033     100.501     263.844
  O      -34.470     101.445     263.931
  O      -33.948      99.163     262.925
  H      -34.716      99.473     262.409
  H      -30.398     101.567     264.460
  H      -31.548     101.174     265.715
  H      -31.921     102.420     264.549

 6  7  8  9  10  11  12  13  14  15  16  26  31  32  33  34  35 0
 6-311+G(2d,p)
 ****
 36  37 0
 6-311+G(2d,p)
 ****
 1  2  3  4  5  17  18  19  20  21  22  23  24  25 0
 3-21G
 ****
 27  28  29  30  38  39  40  41  42  43  44  45 0
 3-21G
 ****


