%nproc=1
%NoSave
%Mem=1900MB
#P OB98/GEN NMR

erre ene a

0 1
  C     -392.247    -174.930     147.004
  O     -391.809    -174.676     145.686
  H     -393.246    -174.512     147.157
  H     -392.292    -176.011     147.158
  H     -391.547    -174.499     147.726
  P     -391.664    -173.136     145.253
  C     -393.973    -172.848     144.089
  O     -393.160    -172.552     145.218
  C     -394.918    -171.685     143.819
  O     -395.577    -171.282     145.038
  C     -394.237    -170.430     143.288
  O     -393.988    -170.503     141.894
  C     -395.290    -169.383     143.605
  O     -396.357    -169.456     142.639
  C     -395.784    -169.844     144.981
  N     -396.264    -166.743     149.023
  C     -397.154    -167.160     148.098
  N     -396.944    -167.983     147.051
  C     -395.664    -168.387     147.006
  C     -394.645    -168.039     147.877
  C     -394.986    -167.179     148.938
  N     -394.081    -166.739     149.874
  N     -393.450    -168.620     147.492
  C     -393.760    -169.334     146.426
  N     -395.083    -169.217     146.089
  O     -391.271    -173.215     143.704
  O     -390.696    -172.328     146.049
  H     -396.023    -169.043     141.821
  H     -390.849    -172.383     143.421
  H     -398.166    -166.779     148.212
  H     -393.062    -169.948     145.868
  H     -396.854    -169.658     145.127
  H     -394.903    -168.360     143.574
  H     -393.321    -170.199     143.849
  H     -395.694    -172.029     143.120
  H     -394.558    -173.751     144.295
  H     -394.382    -165.986     150.476
  H     -393.101    -166.939     149.729
  H     -393.332    -173.027     143.222
  P     -392.632    -169.832     141.352
  C     -393.485    -167.404     140.950
  O     -392.715    -168.286     141.765
  O     -392.851    -169.805     139.765
  O     -391.379    -170.544     141.740
  H     -391.993    -169.817     139.297
  H     -393.441    -166.415     141.355
  H     -394.502    -167.736     140.928
  H     -393.089    -167.400     139.956

 6  7  8  9  10  11  12  13  14  15  25  28  32  33  34  35 0
 6-311+G(2d,p)
 ****
 36  39  40 0
 6-311+G(2d,p)
 ****
 1  2  3  4  5  16  17  18  19  20  21  22  23  24 0
 3-21G
 ****
 26  27  29  30  31  37  38  41  42  43  44  45  46  47 0
 3-21G
 ****
 48 0
 3-21G
 ****


