%nproc=1
%NoSave
%Mem=1900MB
#P OB98/GEN NMR

erre ene a

0 1
  C     -953.329      71.051    -504.891
  O     -952.387      70.939    -505.939
  H     -952.897      70.630    -503.984
  H     -954.240      70.496    -505.140
  H     -953.574      72.103    -504.709
  P     -952.796      71.455    -507.406
  C     -953.748      70.247    -509.481
  O     -953.666      70.273    -508.060
  C     -953.614      68.812    -509.992
  O     -952.253      68.353    -509.878
  C     -954.476      67.792    -509.227
  O     -955.815      67.822    -509.708
  C     -953.746      66.504    -509.594
  O     -954.100      66.119    -510.935
  C     -952.277      66.945    -509.532
  N     -948.892      64.251    -506.874
  C     -949.375      64.059    -508.150
  N     -948.916      62.953    -508.802
  N     -950.249      64.839    -508.737
  C     -950.661      65.847    -507.942
  C     -950.270      66.150    -506.658
  C     -949.251      65.306    -506.045
  O     -948.773      65.474    -504.918
  N     -950.976      67.200    -506.132
  C     -951.765      67.574    -507.120
  N     -951.624      66.776    -508.241
  O     -951.674      71.935    -508.274
  O     -953.883      72.594    -507.127
  H     -954.978      65.679    -510.881
  H     -953.457      73.481    -507.073
  H     -948.227      63.603    -506.468
  H     -952.462      68.404    -507.087
  H     -951.661      66.419    -510.267
  H     -954.015      65.672    -508.927
  H     -948.371      62.238    -508.349
  H     -954.414      67.952    -508.150
  H     -949.312      62.748    -509.707
  H     -953.871      68.809    -511.059
  H     -952.936      70.871    -509.878
  H     -954.704      70.670    -509.814
  P     -957.030      67.277    -508.806
  C     -957.937      64.908    -508.302
  O     -956.834      65.683    -508.740
  O     -958.388      67.732    -509.253
  O     -956.651      67.735    -507.308
  H     -956.924      68.654    -507.102
  H     -957.669      63.872    -508.307
  H     -958.767      65.065    -508.959
  H     -958.208      65.202    -507.309

 6  7  8  9  10  11  12  13  14  15  26  29  33  34 0
 6-311+G(2d,p)
 ****
 36  38  39  40  41 0
 6-311+G(2d,p)
 ****
 1  2  3  4  5  16  17  18  19  20  21  22  23  24  25 0
 3-21G
 ****
 27  28  30  31  32  35  37  42  43  44  45  46  47 0
 3-21G
 ****
 48  49 0
 3-21G
 ****


