%nproc=1
%NoSave
%Mem=1900MB
#P OB98/GEN NMR

erre ene a

0 1
  C      240.826     870.776     348.945
  O      242.202     870.410     348.991
  P      242.814     869.078     348.352
  C      243.930     868.443     346.073
  O      243.444     869.450     346.930
  C      244.458     868.979     344.725
  O      243.343     869.534     343.951
  C      245.437     870.135     344.956
  O      246.806     869.863     345.222
  C      245.221     871.058     343.760
  O      246.128     870.810     342.694
  C      243.792     870.753     343.318
  N      242.428     875.610     342.442
  C      243.524     874.915     341.988
  N      244.405     875.613     341.207
  N      243.757     873.660     342.240
  C      242.842     873.109     343.088
  C      241.722     873.700     343.627
  C      241.469     875.073     343.285
  O      240.492     875.747     343.666
  N      241.058     872.833     344.450
  C      241.767     871.729     344.437
  N      242.870     871.842     343.609
  O      241.921     867.881     348.396
  O      244.094     868.763     349.278
  H      245.956     869.921     342.348
  H      244.191     867.793     349.305
  H      242.289     876.587     342.184
  H      241.538     870.817     344.971
  H      243.749     870.565     342.242
  H      245.388     872.109     344.055
  H      244.353     876.610     341.079
  H      245.080     870.694     345.828
  H      245.302     875.162     341.067
  H      244.879     868.180     344.117
  H      243.122     867.732     345.898
  H      244.744     867.894     346.562
  P      247.563     870.152     346.614
  C      247.888     868.972     348.856
  O      247.130     869.034     347.663
  O      246.855     871.473     347.179
  O      249.048     870.373     346.481
  H      247.393     871.888     347.865
  H      247.710     867.974     349.326
  H      247.589     869.759     349.535
  H      248.971     869.058     348.642
  H      240.689     871.711     349.447
  H      240.240     870.022     349.428
  H      240.516     870.870     347.925

 3  4  5  6  7  8  9  10  11  12  23  26  30  31 0
 6-311+G(2d,p)
 ****
 33  35  36  37  38 0
 6-311+G(2d,p)
 ****
 1  2  13  14  15  16  17  18  19  20  21  22  24  25 0
 3-21G
 ****
 27  28  29  32  34  39  40  41  42  43  44  45  46  47  48  49 0
 3-21G
 ****


