%nproc=1
%NoSave
%Mem=1900MB
#P OB98/GEN NMR

erre ene a

0 1
  C     -444.057     121.464     431.299
  O     -444.813     121.786     430.146
  H     -443.184     120.879     430.994
  H     -444.660     120.864     431.986
  H     -443.714     122.375     431.798
  P     -446.042     122.803     430.350
  C     -444.968     124.695     428.886
  O     -446.021     123.765     429.069
  C     -444.992     125.260     427.463
  O     -444.438     124.266     426.560
  C     -446.394     125.618     426.965
  O     -446.300     126.799     426.160
  C     -446.778     124.431     426.100
  O     -447.770     124.776     425.135
  C     -445.418     124.009     425.529
  N     -445.394     122.608     425.114
  C     -444.955     122.346     423.811
  O     -444.624     123.272     423.071
  N     -444.937     121.048     423.370
  C     -445.387     120.097     424.133
  N     -445.362     118.833     423.628
  C     -445.917     120.334     425.494
  C     -445.876     121.596     425.919
  O     -445.502     123.731     431.538
  O     -447.348     122.137     430.630
  H     -448.125     123.942     424.744
  H     -444.565     123.972     431.447
  H     -446.295     119.511     426.085
  H     -446.235     121.859     426.906
  H     -445.155     124.631     424.660
  H     -447.187     123.629     426.730
  H     -447.112     125.779     427.769
  H     -444.324     126.130     427.420
  H     -445.016     118.718     422.683
  H     -444.000     124.216     429.071
  H     -445.733     118.028     424.109
  H     -445.096     125.501     429.616
  P     -446.985     128.150     426.678
  C     -444.952     129.575     425.972
  O     -446.358     129.396     425.882
  O     -447.050     128.323     428.159
  O     -448.466     128.063     426.054
  H     -449.090     128.418     426.718
  H     -444.664     130.433     425.401
  H     -444.457     128.708     425.587
  H     -444.676     129.718     426.996

 6  7  8  9  10  11  12  13  14  15  16  26  30  31  32  33  35 0
 6-311+G(2d,p)
 ****
 37  38 0
 6-311+G(2d,p)
 ****
 1  2  3  4  5  17  18  19  20  21  22  23  24  25 0
 3-21G
 ****
 27  28  29  34  36  39  40  41  42  43  44  45  46 0
 3-21G
 ****


