%nproc=1
%NoSave
%Mem=1900MB
#P OB98/GEN NMR

erre ene a

0 1
  C       68.291     273.524    -126.056
  O       69.406     272.649    -126.060
  P       70.546     272.753    -124.932
  C       72.647     273.807    -126.005
  O       71.413     274.039    -125.340
  C       73.604     274.967    -125.743
  O       72.970     276.209    -126.108
  C       74.019     275.127    -124.285
  O       74.987     274.157    -123.922
  C       74.500     276.573    -124.280
  O       75.830     276.659    -124.814
  C       73.502     277.244    -125.246
  N       72.432     277.954    -124.555
  C       72.741     279.229    -124.069
  O       73.859     279.716    -124.232
  N       71.759     279.946    -123.431
  C       70.578     279.429    -123.272
  N       69.626     280.212    -122.696
  C       70.227     278.068    -123.719
  C       71.189     277.397    -124.351
  O       71.338     271.508    -124.724
  O       69.775     273.255    -123.628
  H       76.387     276.066    -124.276
  H       69.407     272.519    -123.080
  H       69.234     277.678    -123.550
  H       71.004     276.400    -124.726
  H       74.025     277.947    -125.903
  H       74.510     277.025    -123.282
  H       73.146     275.025    -123.628
  H       74.489     274.833    -126.380
  H       69.860     281.190    -122.566
  H       72.455     273.737    -127.082
  H       68.640     280.003    -122.795
  H       73.073     272.859    -125.662
  P       74.763     273.365    -122.545
  C       75.382     275.577    -121.340
  O       74.478     274.489    -121.434
  O       76.224     272.816    -122.196
  O       73.750     272.271    -122.622
  H       76.298     271.872    -122.431
  H       74.924     276.352    -120.718
  H       75.589     275.995    -122.328
  H       76.310     275.250    -120.868
  H       67.653     273.293    -126.883
  H       68.631     274.535    -126.139
  H       67.747     273.405    -125.142

 3  4  5  6  7  8  9  10  11  12  13  23  27  28  29  30  32 0
 6-311+G(2d,p)
 ****
 34  35 0
 6-311+G(2d,p)
 ****
 1  2  14  15  16  17  18  19  20  21  22  24  25  26 0
 3-21G
 ****
 31  33  36  37  38  39  40  41  42  43  44  45  46 0
 3-21G
 ****


