%nproc=1
%NoSave
%Mem=1900MB
#P OB98/GEN NMR

erre ene a

0 1
  C     -181.301    -854.710     150.846
  O     -180.630    -855.922     150.610
  H     -182.384    -854.874     150.883
  H     -180.974    -854.303     151.806
  H     -181.064    -853.985     150.060
  P     -180.999    -856.707     149.251
  C     -179.037    -856.089     147.672
  O     -179.613    -857.079     148.524
  C     -177.516    -856.186     147.734
  O     -177.041    -855.416     148.872
  C     -176.955    -857.614     147.853
  O     -176.073    -857.906     146.773
  C     -176.140    -857.603     149.143
  O     -174.916    -858.328     149.049
  C     -175.903    -856.117     149.382
  N     -172.378    -855.510     153.032
  C     -172.297    -855.395     151.685
  N     -173.297    -855.462     150.772
  C     -174.486    -855.643     151.385
  C     -174.725    -855.752     152.747
  C     -173.600    -855.705     153.594
  N     -173.675    -855.861     154.954
  N     -176.081    -855.931     152.980
  C     -176.638    -855.987     151.794
  N     -175.712    -855.832     150.795
  O     -181.627    -855.552     148.323
  O     -181.950    -857.848     149.421
  H     -174.442    -857.983     148.265
  H     -182.457    -855.866     147.928
  H     -171.302    -855.244     151.290
  H     -177.676    -856.167     151.597
  H     -175.012    -855.750     148.840
  H     -176.746    -858.034     149.951
  H     -177.754    -858.372     147.897
  H     -177.106    -855.704     146.831
  H     -179.349    -855.093     148.011
  H     -172.817    -855.928     155.466
  H     -174.573    -856.098     155.367
  H     -179.396    -856.246     146.655
  P     -175.993    -859.454     146.290
  C     -176.583    -859.382     143.761
  O     -175.563    -859.455     144.748
  O     -177.535    -859.896     146.257
  O     -175.179    -860.313     147.204
  H     -177.605    -860.859     146.401
  H     -176.139    -859.392     142.788
  H     -177.139    -858.477     143.889
  H     -177.239    -860.221     143.863

 6  7  8  9  10  11  12  13  14  15  25  28  32  33  34  35 0
 6-311+G(2d,p)
 ****
 36  39  40 0
 6-311+G(2d,p)
 ****
 1  2  3  4  5  16  17  18  19  20  21  22  23  24 0
 3-21G
 ****
 26  27  29  30  31  37  38  41  42  43  44  45  46  47  48 0
 3-21G
 ****


