%nproc=1
%NoSave
%Mem=1900MB
#P OB98/GEN NMR

erre ene a

0 1
  C      616.041     443.834    1071.017
  O      614.941     444.051    1071.873
  H      616.157     444.692    1070.353
  H      615.854     442.942    1070.406
  H      616.975     443.699    1071.580
  P      614.734     443.080    1073.135
  C      613.177     441.426    1071.915
  O      614.443     441.621    1072.543
  C      612.534     440.102    1072.366
  O      613.419     439.003    1071.978
  C      612.311     440.011    1073.898
  O      611.149     439.197    1074.104
  C      613.570     439.268    1074.342
  O      613.404     438.720    1075.643
  C      613.756     438.276    1073.196
  N      615.089     437.719    1073.139
  C      615.510     436.981    1074.240
  O      614.801     436.807    1075.260
  N      616.761     436.464    1074.195
  C      617.674     436.673    1073.181
  O      618.801     436.221    1073.212
  C      617.197     437.500    1072.061
  C      615.943     437.972    1072.098
  O      613.747     443.539    1074.154
  O      616.205     442.912    1073.763
  H      613.185     439.449    1076.268
  H      616.145     442.759    1074.715
  H      617.074     435.929    1074.995
  H      617.886     437.669    1071.250
  H      615.570     438.572    1071.260
  H      613.034     437.443    1073.289
  H      614.414     439.956    1074.386
  H      612.192     440.979    1074.376
  H      611.582     439.967    1071.815
  H      613.323     441.409    1070.826
  H      612.513     442.262    1072.159
  P      609.697     439.825    1074.386
  C      608.954     439.567    1076.846
  O      609.655     440.364    1075.913
  O      608.565     438.916    1074.048
  O      609.653     441.161    1073.517
  H      608.740     441.355    1073.265
  H      608.998     440.026    1077.812
  H      609.400     438.596    1076.892
  H      607.932     439.476    1076.541

 6  7  8  9  10  11  12  13  14  15  16  26  31  32  33  34  35 0
 6-311+G(2d,p)
 ****
 36  37 0
 6-311+G(2d,p)
 ****
 1  2  3  4  5  17  18  19  20  21  22  23  24  25 0
 3-21G
 ****
 27  28  29  30  38  39  40  41  42  43  44  45 0
 3-21G
 ****


