%nproc=1
%NoSave
%Mem=1900MB
#P OB98/GEN NMR

erre ene a

0 1
  C     -182.285    -244.372      19.088
  O     -183.504    -244.967      18.672
  P     -184.531    -244.051      17.840
  C     -186.747    -243.751      19.156
  O     -185.416    -243.291      18.941
  C     -186.739    -245.110      19.846
  O     -185.895    -245.059      21.011
  C     -188.097    -245.573      20.348
  O     -188.882    -246.142      19.309
  C     -187.690    -246.627      21.367
  O     -187.406    -247.868      20.695
  C     -186.402    -246.032      21.960
  N     -185.938    -246.465      26.985
  C     -185.612    -247.360      25.984
  N     -185.057    -248.527      26.379
  N     -185.813    -247.133      24.711
  C     -186.338    -245.910      24.463
  C     -186.706    -244.939      25.369
  C     -186.526    -245.225      26.775
  O     -186.859    -244.497      27.708
  N     -187.189    -243.823      24.733
  C     -187.079    -244.104      23.450
  N     -186.594    -245.370      23.236
  O     -185.549    -245.120      17.221
  O     -183.908    -243.199      16.789
  H     -188.263    -248.278      20.477
  H     -185.955    -244.758      16.408
  H     -185.749    -246.685      27.946
  H     -187.335    -243.423      22.649
  H     -185.627    -246.798      22.078
  H     -188.475    -246.835      22.104
  H     -184.759    -248.703      27.327
  H     -188.631    -244.760      20.854
  H     -184.776    -249.178      25.658
  H     -186.311    -245.845      19.150
  H     -187.256    -243.846      18.191
  H     -187.281    -243.014      19.763
  P     -190.473    -246.132      19.522
  C     -191.691    -248.407      19.822
  O     -190.794    -247.457      20.364
  O     -191.040    -246.453      18.062
  O     -191.011    -244.853      20.070
  H     -191.939    -246.085      17.960
  H     -191.584    -248.484      18.735
  H     -192.718    -248.120      20.066
  H     -191.481    -249.381      20.263
  H     -181.703    -245.090      19.627
  H     -182.494    -243.535      19.721
  H     -181.738    -244.042      18.230

 3  4  5  6  7  8  9  10  11  12  23  26  30  31  33  0
 6-311+G(2d,p)
 ****
 35  36  37  38 0
 6-311+G(2d,p)
 ****
 1  2  13  14  15  16  17  18  19  20  21  22  24  25  27  28  29 0
 3-21G
 ****
 32  34  39  40  41  42  43  44  45  46  47  48  49 0
 3-21G
 ****


