%nproc=1
%NoSave
%Mem=1900MB
#P OB98/GEN NMR

erre ene a

0 1
  C     -111.912    -186.001     159.422
  O     -113.194    -185.659     159.924
  P     -113.717    -186.266     161.313
  C     -114.470    -188.436     160.160
  O     -114.871    -187.320     160.948
  C     -114.954    -188.280     158.718
  O     -114.326    -189.298     157.902
  C     -116.462    -188.433     158.565
  O     -116.919    -187.535     157.549
  C     -116.646    -189.855     158.060
  O     -117.867    -189.990     157.313
  C     -115.363    -190.055     157.246
  N     -115.311    -194.327     154.399
  C     -115.776    -193.086     154.145
  N     -115.779    -192.004     154.954
  C     -115.180    -192.289     156.122
  C     -114.655    -193.512     156.525
  C     -114.740    -194.566     155.603
  N     -114.255    -195.831     155.860
  N     -114.149    -193.426     157.809
  C     -114.347    -192.175     158.164
  N     -114.956    -191.444     157.175
  O     -114.104    -185.255     162.337
  O     -112.521    -187.199     161.821
  H     -117.803    -189.382     156.545
  H     -112.427    -187.132     162.790
  H     -116.203    -192.939     153.156
  H     -114.081    -191.752     159.119
  H     -115.469    -189.670     156.223
  H     -116.694    -190.542     158.914
  H     -117.008    -188.250     159.496
  H     -114.620    -187.305     158.341
  H     -114.912    -189.339     160.591
  H     -114.248    -196.490     155.097
  H     -113.678    -195.961     156.683
  H     -113.379    -188.533     160.192
  P     -117.982    -186.422     158.019
  C     -119.872    -187.446     156.546
  O     -119.042    -186.338     156.820
  O     -117.315    -185.149     158.433
  O     -118.740    -187.195     159.201
  H     -118.685    -188.171     159.085
  H     -120.492    -187.210     155.676
  H     -120.527    -187.646     157.396
  H     -119.267    -188.330     156.322
  H     -111.748    -185.499     158.492
  H     -111.859    -187.059     159.271
  H     -111.163    -185.703     160.125

 3  4  5  6  7  8  9  10  11  12  22  25  29  30  31  32 0
 6-311+G(2d,p)
 ****
 33  36  37 0
 6-311+G(2d,p)
 ****
 1  2  13  14  15  16  17  18  19  20  21  23  24  26 0
 3-21G
 ****
 27  28  34  35  38  39  40  41  42  43  44  45  46  47  48 0
 3-21G
 ****


