%nproc=1
%NoSave
%Mem=1900MB
#P OB98/GEN NMR

erre ene a

0 1
  C      346.070     317.325     -28.354
  O      345.496     318.514     -28.849
  H      345.366     316.502     -28.497
  H      346.282     317.421     -27.284
  H      346.995     317.087     -28.897
  P      346.389     319.838     -28.915
  C      348.080     320.902     -27.278
  O      346.886     320.143     -27.415
  C      348.658     320.706     -25.880
  O      348.973     319.311     -25.655
  C      349.959     321.466     -25.635
  O      349.731     322.849     -25.445
  C      350.502     320.723     -24.429
  O      349.900     321.203     -23.219
  C      350.067     319.270     -24.708
  N      351.182     318.456     -25.223
  C      352.114     318.039     -24.287
  O      352.042     318.303     -23.091
  N      353.179     317.345     -24.783
  C      353.469     317.162     -26.109
  O      354.551     316.750     -26.516
  C      352.416     317.565     -27.047
  C      351.333     318.199     -26.580
  O      345.782     320.999     -29.628
  O      347.736     319.347     -29.638
  H      347.718     319.628     -30.574
  H      350.057     322.174     -23.208
  H      353.889     317.070     -24.113
  H      352.563     317.372     -28.107
  H      350.564     318.544     -27.252
  H      349.679     318.799     -23.800
  H      351.588     320.849     -24.333
  H      350.641     321.304     -26.487
  H      347.896     321.001     -25.143
  H      347.848     321.958     -27.437
  H      348.799     320.581     -28.041
  P      350.947     323.893     -25.584
  C      353.244     323.998     -24.435
  O      351.844     323.790     -24.256
  O      350.553     325.284     -25.964
  O      351.890     323.245     -26.700
  H      352.101     323.932     -27.377
  H      353.742     323.907     -23.492
  H      353.411     324.977     -24.833
  H      353.629     323.266     -25.114

 6  7  8  9  10  11  12  13  14  15  16  27  31  32  33  34  35 0
 6-311+G(2d,p)
 ****
 36  37 0
 6-311+G(2d,p)
 ****
 1  2  3  4  5  17  18  19  20  21  22  23  24  25 0
 3-21G
 ****
 26  28  29  30  38  39  40  41  42  43  44  45 0
 3-21G
 ****


