%nproc=1
%NoSave
%Mem=1900MB
#P OB98/GEN NMR

erre ene a

0 1
  C      115.441       8.307     -98.027
  O      114.226       9.004     -97.835
  H      115.706       7.754     -97.123
  H      115.314       7.596     -98.848
  H      116.242       9.007     -98.284
  P      114.190      10.079     -96.643
  C      113.098       8.509     -94.878
  O      114.261       9.210     -95.294
  C      112.819       8.821     -93.412
  O      113.978       8.504     -92.607
  C      112.517      10.292     -93.144
  O      111.168      10.628     -93.415
  C      112.818      10.374     -91.657
  O      111.733       9.798     -90.908
  C      114.071       9.492     -91.545
  N      118.212      11.263     -89.108
  C      117.174      10.505     -88.690
  N      116.121      10.059     -89.406
  C      116.212      10.459     -90.683
  C      117.213      11.227     -91.258
  C      118.252      11.642     -90.407
  N      119.296      12.439     -90.822
  N      116.947      11.453     -92.594
  C      115.816      10.816     -92.824
  N      115.316      10.229     -91.693
  O      112.679      10.606     -96.651
  O      115.196      11.178     -96.725
  H      110.921      10.271     -91.172
  H      112.601      11.420     -96.117
  H      117.188      10.226     -87.640
  H      115.316      10.761     -93.782
  H      114.124       8.954     -90.592
  H      112.940      11.403     -91.307
  H      113.208      10.949     -93.685
  H      111.994       8.181     -93.074
  H      113.267       7.433     -95.000
  H      119.907      12.804     -90.109
  H      119.257      12.847     -91.744
  H      112.249       8.813     -95.497
  P      110.845      12.163     -93.768
  C      109.955      12.629     -91.373
  O      110.899      12.968     -92.380
  O      109.284      12.129     -94.113
  O      111.660      12.730     -94.883
  H      109.062      12.798     -94.789
  H      110.114      13.246     -90.513
  H      110.076      11.601     -91.102
  H      108.964      12.785     -91.746

 6  7  8  9  10  11  12  13  14  15  25  28  32  33  34  35 0
 6-311+G(2d,p)
 ****
 36  39  40 0
 6-311+G(2d,p)
 ****
 1  2  3  4  5  16  17  18  19  20  21  22  23  24 0
 3-21G
 ****
 26  27  29  30  31  37  38  41  42  43  44  45  46  47 0
 3-21G
 ****
 48 0
 3-21G
 ****


