%nproc=1
%NoSave
%Mem=1900MB
#P OB98/GEN NMR

erre ene a

0 1
  C     -239.221    -607.279     709.682
  O     -240.408    -606.501     709.727
  P     -241.792    -606.915     709.059
  C     -242.804    -607.704     711.350
  O     -242.500    -608.008     709.994
  C     -244.126    -608.332     711.821
  O     -245.235    -607.722     711.114
  C     -244.171    -609.822     711.487
  O     -243.547    -610.760     712.345
  C     -245.630    -610.115     711.203
  O     -246.327    -610.601     712.355
  C     -246.188    -608.748     710.781
  N     -248.986    -610.615     706.924
  C     -248.911    -611.042     708.235
  N     -249.634    -612.135     708.558
  N     -248.181    -610.455     709.152
  C     -247.439    -609.436     708.674
  C     -247.407    -608.926     707.394
  C     -248.269    -609.544     706.399
  O     -248.381    -609.198     705.231
  N     -246.512    -607.895     707.274
  C     -245.991    -607.790     708.477
  N     -246.522    -608.700     709.370
  O     -241.743    -607.207     707.597
  O     -242.713    -605.593     709.263
  H     -247.279    -610.473     712.205
  H     -243.308    -605.552     708.486
  H     -249.588    -611.085     706.274
  H     -245.227    -607.068     708.762
  H     -247.109    -608.517     711.326
  H     -245.729    -610.895     710.432
  H     -250.124    -612.698     707.879
  H     -243.649    -609.947     710.519
  H     -249.419    -612.582     709.453
  H     -244.290    -608.126     712.886
  H     -242.851    -606.615     711.431
  H     -241.987    -608.037     711.999
  P     -242.382    -611.793     711.938
  C     -240.361    -610.642     713.023
  O     -241.015    -610.961     711.811
  O     -242.711    -612.166     710.412
  O     -242.301    -613.023     712.785
  H     -242.222    -612.975     710.153
  H     -239.646    -609.839     712.839
  H     -239.837    -611.525     713.397
  H     -241.087    -610.305     713.779
  H     -238.441    -606.770     710.209
  H     -238.928    -607.424     708.663
  H     -239.400    -608.229     710.140

 3  4  5  6  7  8  9  10  11  12  23  26  30  31 0
 6-311+G(2d,p)
 ****
 33  35  36  37  38 0
 6-311+G(2d,p)
 ****
 1  2  13  14  15  16  17  18  19  20  21  22  24  25 0
 3-21G
 ****
 27  28  29  32  34  39  40  41  42  43  44  45  46  47  48  49 0
 3-21G
 ****


