%nproc=1
%NoSave
%Mem=1900MB
#P OB98/GEN NMR

erre ene a

0 1
  C      107.231      25.965     -20.777
  O      106.216      25.536     -19.890
  H      108.203      25.727     -20.336
  H      107.175      27.043     -20.943
  H      107.142      25.436     -21.730
  P      104.711      26.016     -20.176
  C      105.102      28.250     -18.947
  O      104.771      27.623     -20.184
  C      105.046      29.772     -19.066
  O      106.077      30.254     -19.954
  C      103.748      30.304     -19.654
  O      102.612      30.110     -18.844
  C      104.143      31.715     -20.058
  O      104.090      32.630     -18.963
  C      105.611      31.507     -20.504
  N      105.760      31.546     -21.955
  C      105.679      32.803     -22.541
  O      105.471      33.838     -21.907
  N      105.812      32.835     -23.903
  C      105.967      31.753     -24.717
  O      106.060      31.847     -25.936
  C      106.006      30.445     -24.044
  C      105.905      30.402     -22.712
  O      103.666      25.453     -19.259
  O      104.479      25.655     -21.716
  H      104.282      33.517     -19.325
  H      103.517      25.675     -21.947
  H      105.771      33.740     -24.347
  H      106.116      29.563     -24.659
  H      105.933      29.447     -22.191
  H      106.252      32.290     -20.077
  H      103.498      32.114     -20.844
  H      103.546      29.760     -20.586
  H      105.237      30.197     -18.074
  H      106.121      27.946     -18.682
  H      104.415      27.906     -18.168
  P      101.115      30.169     -19.389
  C      100.565      32.271     -17.934
  O      100.569      31.667     -19.223
  O      100.213      29.045     -18.994
  O      101.345      30.072     -20.985
  H      100.587      29.576     -21.355
  H      100.171      33.263     -18.006
  H      101.565      32.311     -17.556
  H       99.956      31.693     -17.271

 6  7  8  9  10  11  12  13  14  15  16  26  31  32  33  34  35 0
 6-311+G(2d,p)
 ****
 36  37 0
 6-311+G(2d,p)
 ****
 1  2  3  4  5  17  18  19  20  21  22  23  24  25 0
 3-21G
 ****
 27  28  29  30  38  39  40  41  42  43  44  45 0
 3-21G
 ****


