%nproc=1
%NoSave
%Mem=1900MB
#P OB98/GEN NMR

erre ene a

0 1
  C      464.404      21.577      -2.837
  O      465.274      22.695      -2.780
  P      466.652      22.610      -3.602
  C      467.590      24.694      -2.357
  O      467.768      23.325      -2.692
  C      468.728      25.169      -1.456
  O      468.748      24.421      -0.224
  C      470.114      24.989      -2.057
  O      470.449      26.027      -2.968
  C      470.986      25.069      -0.815
  O      471.182      26.448      -0.438
  C      470.125      24.346       0.233
  N      473.763      21.244       1.889
  C      473.629      22.611       2.042
  N      474.639      23.246       2.675
  N      472.601      23.294       1.614
  C      471.671      22.527       0.993
  C      471.688      21.163       0.785
  C      472.839      20.422       1.251
  O      473.043      19.222       1.097
  N      470.567      20.744       0.125
  C      469.860      21.843      -0.066
  N      470.512      22.959       0.404
  O      466.435      23.648      -4.798
  O      467.000      21.245      -4.096
  H      471.762      26.442       0.349
  H      467.083      23.484      -5.504
  H      474.577      20.766       2.230
  H      468.896      21.885      -0.550
  H      470.174      24.836       1.209
  H      471.982      24.638      -0.962
  H      475.489      22.787       2.971
  H      470.227      23.998      -2.515
  H      474.599      24.257       2.744
  H      468.551      26.224      -1.208
  H      466.636      24.816      -1.839
  H      467.561      25.290      -3.278
  P      471.230      25.590      -4.299
  C      472.499      27.849      -4.543
  O      472.581      26.456      -4.302
  O      470.350      26.246      -5.463
  O      471.393      24.119      -4.473
  H      470.450      25.747      -6.295
  H      473.444      28.314      -4.249
  H      471.691      28.301      -3.962
  H      472.329      28.030      -5.613
  H      463.533      21.773      -2.248
  H      464.907      20.714      -2.454
  H      464.116      21.401      -3.852

 3  4  5  6  7  8  9  10  11  12  23  26  30  31 0
 6-311+G(2d,p)
 ****
 33  35  36  37  38 0
 6-311+G(2d,p)
 ****
 1  2  13  14  15  16  17  18  19  20  21  22  24  25 0
 3-21G
 ****
 27  28  29  32  34  39  40  41  42  43  44  45  46  47  48  49 0
 3-21G
 ****


