%nproc=1
%NoSave
%Mem=1900MB
#P OB98/GEN NMR

erre ene a

0 1
  C      -24.836     -78.510      37.824
  O      -25.757     -79.592      37.647
  P      -25.325     -80.962      36.929
  C      -27.407     -80.935      35.427
  O      -26.614     -81.708      36.321
  C      -28.837     -81.472      35.271
  O      -28.830     -82.834      34.763
  C      -29.667     -81.489      36.562
  O      -31.023     -81.280      36.163
  C      -29.466     -82.913      37.050
  O      -30.447     -83.334      37.988
  C      -29.501     -83.668      35.725
  N      -30.224     -88.719      35.298
  C      -31.007     -87.670      34.967
  N      -30.731     -86.356      35.076
  C      -29.488     -86.163      35.546
  C      -28.573     -87.135      35.917
  C      -28.988     -88.472      35.789
  N      -28.215     -89.545      36.169
  N      -27.408     -86.558      36.386
  C      -27.625     -85.260      36.307
  N      -28.866     -84.970      35.803
  O      -24.453     -81.843      37.764
  O      -24.527     -80.486      35.625
  H      -30.221     -84.235      38.282
  H      -23.708     -81.010      35.542
  H      -31.986     -87.919      34.568
  H      -26.933     -84.489      36.620
  H      -30.531     -83.816      35.378
  H      -28.487     -82.993      37.536
  H      -29.352     -80.739      37.292
  H      -29.337     -80.860      34.509
  H      -26.917     -80.924      34.447
  H      -28.634     -90.460      36.126
  H      -27.345     -89.377      36.653
  H      -27.443     -79.903      35.793
  P      -31.635     -79.810      35.994
  C      -33.222     -79.773      37.999
  O      -33.119     -79.858      36.590
  O      -31.531     -79.240      34.618
  O      -30.838     -78.917      37.060
  H      -30.923     -77.975      36.824
  H      -32.950     -80.733      38.446
  H      -34.254     -79.534      38.267
  H      -32.565     -78.991      38.393
  H      -25.328     -77.701      38.321
  H      -24.485     -78.181      36.868
  H      -24.007     -78.840      38.414

 3  4  5  6  7  8  9  10  11  12  22  25  29  30  31  32 0
 6-311+G(2d,p)
 ****
 33  36  37 0
 6-311+G(2d,p)
 ****
 1  2  13  14  15  16  17  18  19  20  21  23  24  26 0
 3-21G
 ****
 27  28  34  35  38  39  40  41  42  43  44  45  46  47  48 0
 3-21G
 ****


