%nproc=1
%NoSave
%Mem=1900MB
#P OB98/GEN NMR

erre ene a

0 1
  C      129.104    -148.772      78.983
  O      130.514    -148.567      78.878
  P      131.381    -149.386      77.803
  C      132.795    -147.329      77.241
  O      132.823    -148.692      77.653
  C      132.984    -146.339      78.397
  O      134.166    -146.662      79.170
  C      133.113    -144.873      77.973
  O      132.510    -144.108      79.022
  C      134.616    -144.672      77.954
  O      134.988    -143.301      78.004
  C      135.039    -145.519      79.161
  N      136.445    -145.909      79.100
  C      137.300    -145.340      80.043
  O      136.875    -144.503      80.842
  N      138.627    -145.690      80.032
  C      139.077    -146.467      79.096
  N      140.405    -146.761      79.120
  C      138.225    -147.022      78.026
  C      136.932    -146.713      78.097
  O      130.684    -149.653      76.510
  O      131.716    -150.764      78.554
  H      134.831    -142.908      77.119
  H      131.800    -151.477      77.894
  H      138.648    -147.644      77.250
  H      136.223    -147.076      77.362
  H      134.873    -144.968      80.095
  H      135.032    -145.095      77.030
  H      132.643    -144.654      77.012
  H      132.125    -146.455      79.070
  H      140.960    -146.338      79.856
  H      131.832    -147.134      76.756
  H      140.875    -147.257      78.380
  H      133.572    -147.171      76.486
  P      131.196    -143.226      78.783
  C      130.086    -143.667      81.046
  O      130.718    -142.706      80.220
  O      130.130    -143.894      77.977
  O      131.719    -141.892      78.064
  H      130.968    -141.439      77.639
  H      130.000    -143.265      82.057
  H      130.666    -144.595      81.079
  H      129.084    -143.880      80.662
  H      128.708    -148.140      79.750
  H      128.910    -149.795      79.228
  H      128.639    -148.535      78.049

 3  4  5  6  7  8  9  10  11  12  13  23  27  28  29  30  32 0
 6-311+G(2d,p)
 ****
 34  35 0
 6-311+G(2d,p)
 ****
 1  2  14  15  16  17  18  19  20  21  22  24  25  26 0
 3-21G
 ****
 31  33  36  37  38  39  40  41  42  43  44  45  46 0
 3-21G
 ****


