%nproc=1
%NoSave
%Mem=1900MB
#P OB98/GEN NMR

erre ene a

0 1
  C     -175.673      -4.817     -34.754
  O     -174.744      -5.680     -34.130
  H     -175.507      -3.799     -34.395
  H     -176.690      -5.121     -34.486
  H     -175.553      -4.835     -35.841
  P     -174.598      -7.160     -34.729
  C     -172.501      -6.402     -36.054
  O     -173.058      -7.349     -35.154
  C     -170.988      -6.293     -35.845
  O     -170.725      -6.143     -34.423
  C     -170.203      -7.520     -36.336
  O     -168.973      -7.079     -36.921
  C     -169.914      -8.290     -35.056
  O     -168.759      -9.122     -35.165
  C     -169.772      -7.153     -34.047
  N     -167.616      -9.298     -30.024
  C     -167.057      -8.876     -31.216
  N     -165.726      -9.059     -31.364
  N     -167.748      -8.321     -32.182
  C     -169.063      -8.171     -31.880
  C     -169.733      -8.554     -30.741
  C     -168.963      -9.189     -29.690
  O     -169.402      -9.609     -28.624
  N     -171.074      -8.258     -30.826
  C     -171.209      -7.701     -32.018
  N     -170.020      -7.618     -32.690
  O     -175.365      -7.058     -36.134
  O     -175.158      -8.254     -33.881
  H     -168.021      -8.562     -35.493
  H     -176.151      -7.636     -36.124
  H     -167.039      -9.733     -29.319
  H     -172.141      -7.349     -32.442
  H     -168.770      -6.706     -34.059
  H     -170.773      -8.929     -34.808
  H     -165.126      -9.431     -30.645
  H     -170.756      -8.120     -37.061
  H     -165.288      -8.720     -32.219
  H     -170.631      -5.378     -36.333
  H     -172.966      -5.427     -35.876
  H     -172.710      -6.714     -37.085
  P     -168.863      -7.143     -38.521
  C     -170.503      -5.295     -39.307
  O     -169.147      -5.674     -39.109
  O     -170.164      -7.976     -38.942
  O     -167.609      -7.798     -39.015
  H     -169.903      -8.871     -39.238
  H     -170.542      -4.300     -39.700
  H     -171.023      -5.330     -38.373
  H     -170.965      -5.969     -39.998

 6  7  8  9  10  11  12  13  14  15  26  29  33  34 0
 6-311+G(2d,p)
 ****
 36  38  39  40  41 0
 6-311+G(2d,p)
 ****
 1  2  3  4  5  16  17  18  19  20  21  22  23  24  25 0
 3-21G
 ****
 27  28  30  31  32  35  37  42  43  44  45  46  47 0
 3-21G
 ****
 48  49 0
 3-21G
 ****


