%nproc=1
%NoSave
%Mem=1900MB
#P OB98/GEN NMR

erre ene a

0 1
  C      654.656    -484.348     -47.123
  O      654.438    -482.946     -47.127
  P      654.323    -482.072     -45.809
  C      652.748    -481.971     -43.734
  O      652.948    -482.466     -45.054
  C      651.335    -481.388     -43.527
  O      650.346    -482.422     -43.712
  C      651.189    -480.905     -42.078
  O      651.653    -479.619     -41.701
  C      649.720    -481.182     -41.720
  O      648.892    -480.029     -41.847
  C      649.311    -482.260     -42.730
  N      646.138    -484.959     -39.844
  C      645.931    -483.739     -40.464
  N      644.801    -483.092     -40.119
  N      646.760    -483.223     -41.327
  C      647.881    -483.946     -41.501
  C      648.202    -485.175     -40.955
  C      647.249    -485.757     -40.044
  O      647.445    -486.792     -39.396
  N      649.460    -485.578     -41.307
  C      649.935    -484.580     -42.025
  N      649.029    -483.551     -42.135
  O      654.686    -480.629     -45.918
  O      655.423    -482.774     -44.858
  H      648.034    -480.217     -41.421
  H      655.830    -482.079     -44.300
  H      645.494    -485.274     -39.133
  H      650.934    -484.542     -42.452
  H      648.412    -481.947     -43.274
  H      649.636    -481.506     -40.673
  H      644.213    -483.390     -39.348
  H      651.760    -481.595     -41.449
  H      644.692    -482.125     -40.424
  H      651.117    -480.623     -44.276
  H      653.510    -481.215     -43.547
  H      652.909    -482.780     -43.019
  P      652.243    -479.199     -40.278
  C      651.360    -478.422     -37.991
  O      651.020    -478.850     -39.306
  O      652.918    -477.770     -40.529
  O      653.243    -480.153     -39.706
  H      653.584    -477.588     -39.846
  H      650.494    -478.521     -37.348
  H      651.691    -477.388     -38.019
  H      652.176    -479.059     -37.585
  H      654.696    -484.706     -48.131
  H      653.855    -484.832     -46.604
  H      655.582    -484.564     -46.631

 3  4  5  6  7  8  9  10  11  12  23  26  30  31 0
 6-311+G(2d,p)
 ****
 33  35  36  37  38 0
 6-311+G(2d,p)
 ****
 1  2  13  14  15  16  17  18  19  20  21  22  24  25 0
 3-21G
 ****
 27  28  29  32  34  39  40  41  42  43  44  45  46  47  48  49 0
 3-21G
 ****


