%nproc=1
%NoSave
%Mem=1900MB
#P OB98/GEN NMR

erre ene a

0 1
  C       28.847    -180.816     -22.233
  O       28.916    -182.045     -21.536
  H       29.781    -180.271     -22.069
  H       28.021    -180.212     -21.852
  H       28.726    -180.986     -23.306
  P       27.709    -183.088     -21.689
  C       27.498    -183.031     -24.251
  O       27.889    -183.795     -23.120
  C       26.552    -183.835     -25.141
  O       25.748    -182.912     -25.919
  C       27.273    -184.770     -26.118
  O       26.516    -185.974     -26.234
  C       27.227    -184.011     -27.430
  O       27.285    -184.878     -28.561
  C       25.906    -183.254     -27.310
  N       25.143    -181.520     -31.992
  C       24.988    -182.791     -31.476
  N       24.594    -183.753     -32.337
  N       25.203    -183.094     -30.223
  C       25.578    -182.032     -29.470
  C       25.769    -180.728     -29.862
  C       25.541    -180.407     -31.256
  O       25.674    -179.305     -31.773
  N       26.177    -179.947     -28.810
  C       26.236    -180.779     -27.786
  N       25.893    -182.057     -28.137
  O       26.343    -182.530     -21.445
  O       28.069    -184.253     -20.656
  H       27.305    -184.308     -29.360
  H       27.556    -184.155     -19.833
  H       24.973    -181.343     -32.967
  H       26.527    -180.511     -26.779
  H       25.046    -183.862     -27.618
  H       28.075    -183.316     -27.486
  H       24.394    -183.590     -33.312
  H       28.297    -185.000     -25.811
  H       24.450    -184.689     -31.976
  H       25.862    -184.394     -24.499
  H       28.399    -182.766     -24.815
  H       27.007    -182.111     -23.916
  P       27.016    -187.279     -25.448
  C       25.764    -187.352     -23.198
  O       25.805    -187.815     -24.544
  O       28.326    -187.146     -24.745
  O       27.094    -188.383     -26.611
  H       27.795    -189.026     -26.387
  H       24.917    -187.776     -22.701
  H       25.685    -186.285     -23.190
  H       26.659    -187.647     -22.692

 6  7  8  9  10  11  12  13  14  15  26  29  33  34 0
 6-311+G(2d,p)
 ****
 36  38  39  40  41 0
 6-311+G(2d,p)
 ****
 1  2  3  4  5  16  17  18  19  20  21  22  23  24  25 0
 3-21G
 ****
 27  28  30  31  32  35  37  42  43  44  45  46  47 0
 3-21G
 ****
 48  49 0
 3-21G
 ****


