%nproc=1
%NoSave
%Mem=1900MB
#P OB98/GEN NMR

erre ene a

0 1
  C      147.766    -367.717     152.286
  O      148.630    -368.611     152.951
  H      147.880    -366.720     152.733
  H      146.728    -368.031     152.416
  H      148.009    -367.657     151.223
  P      148.761    -370.113     152.409
  C      147.211    -371.297     154.096
  O      147.387    -370.870     152.753
  C      145.791    -371.836     154.312
  O      145.709    -372.408     155.645
  C      144.699    -370.773     154.190
  O      143.552    -371.347     153.560
  C      144.382    -370.421     155.625
  O      143.053    -369.926     155.782
  C      144.623    -371.758     156.336
  N      143.187    -372.834     161.065
  C      142.675    -373.275     159.850
  N      141.611    -374.109     159.910
  N      143.160    -372.920     158.694
  C      144.239    -372.105     158.791
  C      144.843    -371.604     159.921
  C      144.280    -371.987     161.199
  O      144.678    -371.621     162.301
  N      145.901    -370.788     159.601
  C      145.936    -370.794     158.283
  N      144.944    -371.567     157.743
  O      150.001    -370.836     152.848
  O      148.705    -369.968     150.819
  H      142.963    -369.624     156.710
  H      149.592    -370.080     150.421
  H      142.767    -373.136     161.922
  H      146.652    -370.255     157.680
  H      143.744    -372.417     156.288
  H      145.079    -369.652     155.984
  H      141.202    -374.437     160.773
  H      145.031    -369.907     153.611
  H      141.228    -374.462     159.039
  H      145.621    -372.661     153.608
  H      147.380    -370.439     154.755
  H      147.949    -372.076     154.328
  P      143.429    -371.311     151.962
  C      141.724    -369.387     151.765
  O      143.053    -369.811     151.503
  O      142.578    -372.380     151.358
  O      144.952    -371.451     151.489
  H      144.975    -371.962     150.654
  H      141.595    -368.383     151.418
  H      141.538    -369.428     152.818
  H      141.037    -370.031     151.256

 6  7  8  9  10  11  12  13  14  15  26  29  33  34 0
 6-311+G(2d,p)
 ****
 36  38  39  40  41 0
 6-311+G(2d,p)
 ****
 1  2  3  4  5  16  17  18  19  20  21  22  23  24  25 0
 3-21G
 ****
 27  28  30  31  32  35  37  42  43  44  45  46  47 0
 3-21G
 ****
 48  49 0
 3-21G
 ****


