%nproc=1
%NoSave
%Mem=1900MB
#P OB98/GEN NMR

erre ene a

0 1
  C       96.273     -24.895      49.120
  O       95.627     -25.941      49.827
  P       94.730     -27.021      49.051
  C       92.750     -25.435      49.468
  O       93.435     -26.237      48.513
  C       91.603     -24.672      48.806
  O       92.155     -23.751      47.834
  C       90.618     -25.576      48.071
  O       89.300     -25.038      48.217
  C       91.020     -25.463      46.609
  O       89.908     -25.734      45.739
  C       91.552     -24.028      46.554
  N       92.394     -23.514      41.514
  C       91.253     -23.648      42.224
  N       91.103     -23.806      43.559
  C       92.296     -23.759      44.174
  C       93.544     -23.623      43.584
  C       93.570     -23.498      42.183
  N       94.735     -23.348      41.461
  N       94.543     -23.650      44.538
  C       93.906     -23.779      45.682
  N       92.548     -23.839      45.517
  O       94.430     -28.260      49.820
  O       95.547     -27.333      47.713
  H       89.274     -24.995      45.845
  H       95.479     -28.281      47.486
  H       90.333     -23.632      41.643
  H       94.378     -23.846      46.651
  H       90.743     -23.303      46.395
  H       91.808     -26.193      46.387
  H       90.641     -26.610      48.429
  H       91.089     -24.077      49.570
  H       93.462     -24.717      49.889
  H       94.648     -23.143      40.478
  H       95.589     -23.162      41.970
  H       92.376     -26.070      50.277
  P       88.172     -26.070      48.729
  C       87.631     -26.655      46.249
  O       88.003     -27.117      47.529
  O       86.942     -25.364      49.199
  O       88.970     -26.860      49.870
  H       89.940     -26.836      49.715
  H       87.529     -27.516      45.582
  H       88.402     -25.994      45.846
  H       86.673     -26.128      46.296
  H       96.819     -24.284      49.808
  H       95.540     -24.299      48.617
  H       96.947     -25.313      48.402

 3  4  5  6  7  8  9  10  11  12  22  25  29  30  31  32 0
 6-311+G(2d,p)
 ****
 33  36  37 0
 6-311+G(2d,p)
 ****
 1  2  13  14  15  16  17  18  19  20  21  23  24  26 0
 3-21G
 ****
 27  28  34  35  38  39  40  41  42  43  44  45  46  47  48 0
 3-21G
 ****


