%nproc=1
%NoSave
%Mem=1900MB
#P OB98/GEN NMR

erre ene a

0 1
  C       -7.859     -63.562     113.138
  O       -7.125     -62.542     113.773
  H       -8.018     -63.277     112.093
  H       -8.837     -63.682     113.611
  H       -7.312     -64.507     113.163
  P       -6.782     -62.677     115.336
  C       -4.476     -62.384     116.423
  O       -5.442     -61.811     115.552
  C       -3.220     -61.515     116.500
  O       -2.559     -61.501     115.205
  C       -3.501     -60.056     116.890
  O       -2.585     -59.642     117.906
  C       -3.224     -59.284     115.609
  O       -2.885     -57.920     115.842
  C       -2.125     -60.148     114.984
  N       -1.930     -59.850     113.572
  C       -0.645     -59.444     113.199
  O        0.249     -59.361     114.043
  N       -0.416     -59.090     111.895
  C       -1.396     -59.093     111.046
  N       -1.108     -58.703     109.777
  C       -2.774     -59.488     111.404
  C       -2.968     -59.854     112.670
  O       -6.717     -64.078     115.841
  O       -7.893     -61.794     116.076
  H       -3.619     -57.498     116.339
  H       -7.973     -62.099     117.010
  H       -3.557     -59.468     110.660
  H       -3.946     -60.159     113.025
  H       -1.170     -60.007     115.507
  H       -4.120     -59.305     114.974
  H       -4.519     -59.894     117.243
  H       -2.516     -61.983     117.199
  H       -0.151     -58.434     109.577
  H       -4.226     -63.386     116.058
  H       -1.791     -58.642     109.038
  H       -4.916     -62.464     117.422
  P       -3.235     -59.055     119.251
  C       -2.247     -58.229     121.503
  O       -2.068     -58.356     120.100
  O       -3.593     -60.369     120.091
  O       -4.442     -58.212     119.008
  H       -4.561     -60.484     120.128
  H       -1.392     -57.747     121.929
  H       -2.362     -59.200     121.937
  H       -3.121     -57.644     121.700

 6  7  8  9  10  11  12  13  14  15  16  26  30  31  32  33  35 0
 6-311+G(2d,p)
 ****
 37  38 0
 6-311+G(2d,p)
 ****
 1  2  3  4  5  17  18  19  20  21  22  23  24  25 0
 3-21G
 ****
 27  28  29  34  36  39  40  41  42  43  44  45  46 0
 3-21G
 ****


