%nproc=1
%NoSave
%Mem=1900MB
#P OB98/GEN NMR

erre ene a

0 1
  C     1447.913    -296.547     198.802
  O     1447.583    -297.923     198.845
  H     1448.848    -296.397     199.355
  H     1447.125    -295.959     199.269
  H     1448.067    -296.235     197.760
  P     1446.215    -298.353     198.110
  C     1443.884    -297.236     198.146
  O     1445.084    -297.479     198.847
  C     1442.986    -296.268     198.913
  O     1443.725    -295.083     199.277
  C     1441.760    -295.804     198.175
  O     1440.714    -296.754     198.273
  C     1441.411    -294.514     198.926
  O     1440.697    -294.860     200.137
  C     1442.802    -293.962     199.289
  N     1442.691    -288.967     198.056
  C     1441.920    -289.704     198.898
  N     1441.961    -291.042     199.139
  C     1442.947    -291.615     198.403
  C     1443.812    -290.993     197.519
  C     1443.659    -289.610     197.353
  N     1444.437    -288.863     196.491
  N     1444.656    -291.908     196.919
  C     1444.372    -293.053     197.508
  N     1443.314    -292.940     198.385
  O     1445.967    -299.820     198.022
  O     1446.370    -297.598     196.710
  H     1439.918    -295.394     199.846
  H     1446.741    -296.705     196.836
  H     1441.180    -289.155     199.466
  H     1444.909    -293.987     197.368
  H     1442.826    -293.537     200.299
  H     1440.777    -293.845     198.350
  H     1441.986    -295.538     197.111
  H     1442.706    -296.764     199.861
  H     1443.342    -298.170     197.955
  H     1444.137    -287.917     196.312
  H     1445.059    -289.365     195.853
  H     1444.153    -296.786     197.168
  P     1439.686    -297.019     197.049
  C     1438.378    -295.417     195.528
  O     1439.005    -295.574     196.793
  O     1438.758    -298.154     197.270
  O     1440.647    -297.204     195.771
  H     1440.121    -297.611     195.052
  H     1437.961    -294.434     195.456
  H     1437.600    -296.144     195.423
  H     1439.101    -295.555     194.752

 6  7  8  9  10  11  12  13  14  15  25  28  32  33  34  35 0
 6-311+G(2d,p)
 ****
 36  39  40 0
 6-311+G(2d,p)
 ****
 1  2  3  4  5  16  17  18  19  20  21  22  23  24 0
 3-21G
 ****
 26  27  29  30  31  37  38  41  42  43  44  45  46  47 0
 3-21G
 ****
 48 0
 3-21G
 ****


