%nproc=1
%NoSave
%Mem=1900MB
#P OB98/GEN NMR

erre ene a

0 1
  C     -191.161     -17.825     367.455
  O     -191.462     -16.899     366.429
  H     -190.129     -18.155     367.339
  H     -191.821     -18.694     367.364
  H     -191.280     -17.367     368.441
  P     -192.817     -16.051     366.582
  C     -194.454     -17.865     365.706
  O     -194.006     -17.108     366.823
  C     -195.567     -18.826     366.129
  O     -196.708     -18.047     366.586
  C     -196.057     -19.740     364.996
  O     -196.333     -21.037     365.537
  C     -197.352     -19.087     364.544
  O     -198.251     -20.015     363.930
  C     -197.862     -18.496     365.851
  N     -202.741     -17.260     365.529
  C     -202.143     -18.461     365.880
  N     -202.970     -19.485     366.185
  N     -200.851     -18.632     365.930
  C     -200.149     -17.513     365.634
  C     -200.614     -16.275     365.271
  C     -202.053     -16.101     365.192
  O     -202.645     -15.076     364.865
  N     -199.586     -15.403     365.018
  C     -198.491     -16.117     365.228
  N     -198.785     -17.401     365.617
  O     -193.082     -15.521     365.094
  O     -192.762     -14.927     367.561
  H     -198.579     -20.614     364.635
  H     -193.020     -14.546     365.079
  H     -203.747     -17.189     365.498
  H     -197.481     -15.753     365.116
  H     -198.395     -19.239     366.466
  H     -197.131     -18.297     363.819
  H     -203.972     -19.409     366.219
  H     -195.339     -19.836     364.180
  H     -202.556     -20.360     366.481
  H     -195.219     -19.413     366.978
  H     -193.611     -18.434     365.302
  H     -194.825     -17.182     364.932
  P     -195.269     -22.198     365.224
  C     -195.969     -22.797     362.797
  O     -194.984     -22.208     363.640
  O     -196.114     -23.540     365.461
  O     -194.051     -22.156     366.092
  H     -195.820     -23.974     366.287
  H     -195.650     -22.734     361.778
  H     -196.896     -22.276     362.914
  H     -196.101     -23.824     363.066

 6  7  8  9  10  11  12  13  14  15  26  29  33  34 0
 6-311+G(2d,p)
 ****
 36  38  39  40  41 0
 6-311+G(2d,p)
 ****
 1  2  3  4  5  16  17  18  19  20  21  22  23  24  25 0
 3-21G
 ****
 27  28  30  31  32  35  37  42  43  44  45  46  47 0
 3-21G
 ****
 48  49 0
 3-21G
 ****


