%nproc=1
%NoSave
%Mem=1900MB
#P OB98/GEN NMR

erre ene a

0 1
  C     -198.917     271.667    -110.765
  O     -200.108     271.441    -110.040
  H     -198.732     272.740    -110.852
  H     -198.086     271.208    -110.223
  H     -198.980     271.217    -111.760
  P     -201.479     271.885    -110.747
  C     -203.158     270.079    -109.921
  O     -202.655     271.398    -109.765
  C     -202.211     269.067    -109.271
  O     -201.890     269.519    -107.930
  C     -202.805     267.659    -109.159
  O     -201.776     266.701    -109.415
  C     -203.239     267.576    -107.704
  O     -203.291     266.234    -107.235
  C     -202.183     268.439    -107.022
  N     -203.306     267.200    -102.199
  C     -202.765     266.491    -103.211
  N     -202.492     266.898    -104.467
  C     -202.792     268.201    -104.618
  C     -203.348     269.054    -103.681
  C     -203.620     268.503    -102.417
  N     -204.204     269.210    -101.391
  N     -203.543     270.310    -104.226
  C     -203.111     270.215    -105.466
  N     -202.650     268.958    -105.749
  O     -201.573     270.861    -111.979
  O     -201.552     273.304    -111.194
  H     -203.622     266.244    -106.313
  H     -200.995     271.169    -112.702
  H     -202.526     265.454    -102.982
  H     -203.115     271.014    -106.196
  H     -201.251     267.888    -106.826
  H     -204.235     268.016    -107.592
  H     -203.637     267.493    -109.845
  H     -201.269     269.056    -109.835
  H     -203.253     269.858    -110.989
  H     -204.414     268.719    -100.538
  H     -204.500     270.161    -101.555
  H     -204.145     270.012    -109.452
  P     -201.612     266.210    -110.934
  C     -199.187     265.307    -110.776
  O     -200.559     264.994    -110.969
  O     -200.825     267.415    -111.632
  O     -202.913     265.938    -111.620
  H     -201.275     267.673    -112.457
  H     -198.606     264.410    -110.824
  H     -199.057     265.765    -109.818
  H     -198.864     265.982    -111.541

 6  7  8  9  10  11  12  13  14  15  25  28  32  33  34  35 0
 6-311+G(2d,p)
 ****
 36  39  40 0
 6-311+G(2d,p)
 ****
 1  2  3  4  5  16  17  18  19  20  21  22  23  24 0
 3-21G
 ****
 26  27  29  30  31  37  38  41  42  43  44  45  46  47 0
 3-21G
 ****
 48 0
 3-21G
 ****


