%nproc=1
%NoSave
%Mem=1900MB
#P OB98/GEN NMR

erre ene a

0 1
  C      -63.273      68.586     -35.659
  O      -63.884      69.667     -36.329
  P      -65.265      69.539     -37.121
  C      -64.122      70.468     -39.261
  O      -64.938      69.450     -38.692
  C      -64.035      70.381     -40.792
  O      -63.407      69.139     -41.167
  C      -65.441      70.356     -41.399
  O      -66.143      71.563     -41.619
  C      -65.329      69.446     -42.615
  O      -65.176      70.176     -43.834
  C      -64.077      68.617     -42.325
  N      -66.482      64.479     -43.993
  C      -66.226      65.662     -44.657
  N      -66.856      65.823     -45.841
  N      -65.446      66.601     -44.188
  C      -64.966      66.335     -42.950
  C      -65.139      65.195     -42.201
  C      -65.968      64.148     -42.748
  O      -66.288      63.121     -42.156
  N      -64.564      65.307     -40.962
  C      -64.077      66.530     -40.942
  N      -64.331      67.207     -42.111
  O      -66.382      70.425     -36.672
  O      -65.688      68.019     -36.777
  H      -65.104      69.532     -44.562
  H      -66.662      67.993     -36.718
  H      -67.156      63.824     -44.370
  H      -63.566      66.983     -40.101
  H      -63.365      68.689     -43.157
  H      -66.237      68.842     -42.730
  H      -67.572      65.188     -46.161
  H      -66.078      69.806     -40.694
  H      -66.827      66.741     -46.271
  H      -63.396      71.171     -41.194
  H      -63.128      70.381     -38.812
  H      -64.515      71.449     -38.980
  P      -67.728      71.729     -41.751
  C      -67.525      72.069     -44.278
  O      -68.155      71.336     -43.242
  O      -67.963      73.313     -41.719
  O      -68.522      71.065     -40.674
  H      -68.879      73.504     -41.443
  H      -68.095      71.942     -45.201
  H      -66.511      71.687     -44.430
  H      -67.478      73.133     -44.031
  H      -62.362      68.916     -35.206
  H      -63.060      67.806     -36.360
  H      -63.934      68.216     -34.903

 3  4  5  6  7  8  9  10  11  12  23  26  30  31 0
 6-311+G(2d,p)
 ****
 33  35  36  37  38 0
 6-311+G(2d,p)
 ****
 1  2  13  14  15  16  17  18  19  20  21  22  24  25 0
 3-21G
 ****
 27  28  29  32  34  39  40  41  42  43  44  45  46  47  48  49 0
 3-21G
 ****


