%nproc=1
%NoSave
%Mem=1900MB
#P OB98/GEN NMR

erre ene a

0 1
  C      -82.594     -53.575     558.123
  O      -82.362     -54.861     557.567
  P      -81.555     -55.033     556.189
  C      -81.512     -53.685     553.986
  O      -82.216     -53.971     555.190
  C      -82.482     -53.681     552.808
  O      -83.628     -52.867     553.121
  C      -81.912     -53.117     551.513
  O      -81.044     -54.046     550.888
  C      -83.183     -52.786     550.753
  O      -83.727     -53.970     550.152
  C      -84.116     -52.297     551.881
  N      -84.193     -50.844     551.960
  C      -85.130     -50.221     551.141
  O      -85.861     -50.874     550.392
  N      -85.259     -48.847     551.195
  C      -84.498     -48.164     551.990
  N      -84.716     -46.824     552.057
  C      -83.455     -48.777     552.835
  C      -83.361     -50.099     552.773
  O      -81.495     -56.425     555.672
  O      -80.122     -54.389     556.477
  H      -83.168     -54.183     549.380
  H      -79.467     -55.030     556.852
  H      -82.833     -48.153     553.471
  H      -82.633     -50.627     553.382
  H      -85.123     -52.695     551.742
  H      -83.038     -52.046     549.954
  H      -81.354     -52.189     551.720
  H      -82.835     -54.712     552.648
  H      -85.548     -46.472     551.594
  H      -80.762     -54.462     553.828
  H      -84.374     -46.269     552.838
  H      -81.009     -52.721     554.081
  P      -80.125     -53.515     549.675
  C      -80.648     -52.497     547.354
  O      -81.135     -53.252     548.460
  O      -79.300     -54.822     549.245
  O      -79.237     -52.376     550.041
  H      -78.399     -54.783     549.609
  H      -81.352     -52.611     546.525
  H      -79.671     -52.867     547.038
  H      -80.588     -51.442     547.624
  H      -83.145     -53.675     559.035
  H      -83.155     -52.983     557.431
  H      -81.657     -53.098     558.322

 3  4  5  6  7  8  9  10  11  12  13  23  27  28  29  30  32 0
 6-311+G(2d,p)
 ****
 34  35 0
 6-311+G(2d,p)
 ****
 1  2  14  15  16  17  18  19  20  21  22  24  25  26 0
 3-21G
 ****
 31  33  36  37  38  39  40  41  42  43  44  45  46 0
 3-21G
 ****


