%nproc=1
%NoSave
%Mem=1900MB
#P OB98/GEN NMR

erre ene a

0 1
  C      574.367     221.329     668.862
  O      573.944     221.058     670.181
  P      573.926     219.528     670.659
  C      571.383     219.161     670.191
  O      572.733     218.802     669.871
  C      570.523     217.910     670.285
  O      570.139     217.465     668.969
  C      571.199     216.716     670.940
  O      571.279     216.871     672.344
  C      570.304     215.570     670.463
  O      569.104     215.540     671.259
  C      569.957     216.023     669.012
  N      570.994     211.671     666.499
  C      570.096     211.978     667.458
  N      569.884     213.146     668.099
  C      570.749     214.073     667.634
  C      571.731     213.923     666.690
  C      571.846     212.669     666.091
  N      572.774     212.366     665.119
  N      572.441     215.103     666.509
  C      571.857     215.960     667.323
  N      570.818     215.395     668.031
  O      573.387     219.607     672.168
  O      575.249     218.833     670.579
  H      569.349     215.209     672.149
  H      573.793     218.919     672.716
  H      569.430     211.142     667.757
  H      572.156     216.997     667.455
  H      568.932     215.809     668.736
  H      570.772     214.600     670.524
  H      572.214     216.584     670.531
  H      569.602     218.175     670.824
  H      570.985     219.823     669.399
  H      572.889     211.396     664.863
  H      573.505     213.047     664.927
  H      571.386     219.720     671.142
  P      572.692     216.626     673.055
  C      572.477     214.334     674.170
  O      572.890     215.032     673.014
  O      572.348     216.900     674.594
  O      573.820     217.439     672.469
  H      571.549     216.422     674.886
  H      572.614     213.263     673.978
  H      571.411     214.520     674.362
  H      573.076     214.624     675.026
  H      574.328     222.383     668.684
  H      573.723     220.827     668.171
  H      575.371     220.982     668.731

 3  4  5  6  7  8  9  10  11  12  22  25  29  30  31  32 0
 6-311+G(2d,p)
 ****
 33  36  37 0
 6-311+G(2d,p)
 ****
 1  2  13  14  15  16  17  18  19  20  21  23  24  26 0
 3-21G
 ****
 27  28  34  35  38  39  40  41  42  43  44  45  46  47  48 0
 3-21G
 ****


