%nproc=1
%NoSave
%Mem=1900MB
#P OB98/GEN NMR

erre ene a

0 1
  C     -211.210    -251.881    -177.450
  O     -210.234    -251.473    -176.511
  H     -212.046    -251.180    -177.419
  H     -211.577    -252.878    -177.188
  H     -210.795    -251.888    -178.464
  P     -208.788    -252.159    -176.622
  C     -207.856    -250.217    -175.172
  O     -207.934    -251.621    -175.374
  C     -206.804    -249.893    -174.114
  O     -207.248    -250.315    -172.811
  C     -205.451    -250.558    -174.352
  O     -204.652    -249.821    -175.271
  C     -204.861    -250.502    -172.952
  O     -204.383    -249.165    -172.680
  C     -206.088    -250.806    -172.078
  N     -204.400    -254.764    -169.393
  C     -203.894    -253.483    -169.490
  N     -202.777    -253.218    -168.776
  N     -204.435    -252.541    -170.223
  C     -205.534    -252.953    -170.902
  C     -206.122    -254.203    -170.892
  C     -205.524    -255.224    -170.063
  O     -205.937    -256.375    -169.935
  N     -207.223    -254.244    -171.705
  C     -207.286    -253.033    -172.225
  N     -206.278    -252.215    -171.770
  O     -208.136    -251.411    -177.880
  O     -208.800    -253.640    -176.816
  H     -204.027    -249.166    -171.774
  H     -208.185    -252.002    -178.656
  H     -203.939    -255.458    -168.821
  H     -208.040    -252.700    -172.924
  H     -206.057    -250.270    -171.116
  H     -204.012    -251.173    -172.822
  H     -202.300    -253.904    -168.208
  H     -205.563    -251.607    -174.662
  H     -202.392    -252.283    -168.830
  H     -206.692    -248.800    -174.081
  H     -208.831    -249.851    -174.837
  H     -207.598    -249.737    -176.121
  P     -203.963    -250.615    -176.484
  C     -204.664    -248.623    -177.984
  O     -203.637    -249.533    -177.627
  O     -205.184    -251.450    -177.096
  O     -202.832    -251.509    -176.099
  H     -205.055    -252.405    -176.929
  H     -204.308    -247.967    -178.751
  H     -204.946    -248.049    -177.126
  H     -205.512    -249.166    -178.345

 6  7  8  9  10  11  12  13  14  15  26  29  33  34 0
 6-311+G(2d,p)
 ****
 36  38  39  40  41 0
 6-311+G(2d,p)
 ****
 1  2  3  4  5  16  17  18  19  20  21  22  23  24  25 0
 3-21G
 ****
 27  28  30  31  32  35  37  42  43  44  45  46  47 0
 3-21G
 ****
 48  49 0
 3-21G
 ****


