%nproc=1
%NoSave
%Mem=1900MB
#P OB98/GEN NMR

erre ene a

0 1
  C     -145.827     -14.478      70.084
  O     -144.513     -14.129      69.707
  H     -146.515     -13.732      69.677
  H     -145.909     -14.476      71.174
  H     -146.107     -15.461      69.696
  P     -143.370     -15.247      69.776
  C     -141.948     -14.145      71.626
  O     -142.015     -14.533      70.259
  C     -140.540     -13.696      72.022
  O     -139.592     -14.759      71.784
  C     -140.056     -12.505      71.195
  O     -140.475     -11.235      71.658
  C     -138.540     -12.653      71.296
  O     -138.044     -12.029      72.492
  C     -138.351     -14.169      71.361
  N     -137.217     -18.369      68.682
  C     -137.538     -18.252      70.020
  N     -137.495     -19.391      70.746
  N     -137.853     -17.118      70.588
  C     -137.761     -16.051      69.761
  C     -137.440     -16.041      68.423
  C     -137.145     -17.310      67.788
  O     -136.848     -17.467      66.609
  N     -137.452     -14.765      67.912
  C     -137.706     -14.001      68.954
  N     -137.928     -14.738      70.094
  O     -143.062     -15.567      68.235
  O     -143.738     -16.495      70.521
  H     -137.102     -12.258      72.588
  H     -142.716     -16.473      68.146
  H     -137.009     -19.271      68.291
  H     -137.767     -12.918      68.934
  H     -137.595     -14.447      72.107
  H     -138.031     -12.173      70.456
  H     -137.146     -20.263      70.378
  H     -140.343     -12.628      70.145
  H     -137.462     -19.307      71.764
  H     -140.521     -13.478      73.096
  H     -142.242     -15.016      72.215
  H     -142.674     -13.354      71.832
  P     -141.748     -10.522      71.000
  C     -140.595      -8.806      69.420
  O     -141.304      -9.030      70.619
  O     -142.726     -10.320      72.250
  O     -142.401     -11.288      69.902
  H     -143.378     -11.046      72.288
  H     -140.380      -7.762      69.323
  H     -141.189      -9.127      68.589
  H     -139.679      -9.359      69.439

 6  7  8  9  10  11  12  13  14  15  26  29  33  34 0
 6-311+G(2d,p)
 ****
 36  38  39  40  41 0
 6-311+G(2d,p)
 ****
 1  2  3  4  5  16  17  18  19  20  21  22  23  24  25 0
 3-21G
 ****
 27  28  30  31  32  35  37  42  43  44  45  46  47 0
 3-21G
 ****
 48  49 0
 3-21G
 ****


