%nproc=1
%NoSave
%Mem=1900MB
#P OB98/GEN NMR

erre ene a

0 1
  C      -95.404    -260.916    -125.783
  O      -96.136    -260.940    -126.990
  H      -95.970    -260.344    -125.042
  H      -94.438    -260.431    -125.932
  H      -95.258    -261.931    -125.401
  P      -95.516    -261.720    -128.247
  C      -97.732    -261.582    -129.583
  O      -96.371    -261.188    -129.502
  C      -98.565    -260.473    -130.222
  O      -98.550    -259.276    -129.419
  C      -98.084    -260.020    -131.594
  O      -98.355    -260.945    -132.634
  C      -98.878    -258.734    -131.739
  O     -100.245    -259.047    -132.058
  C      -98.752    -258.146    -130.315
  N      -97.652    -257.191    -130.195
  C      -97.954    -255.849    -130.464
  O      -99.093    -255.517    -130.795
  N      -96.950    -254.915    -130.388
  C      -95.742    -255.289    -130.094
  N      -94.783    -254.323    -130.041
  C      -95.378    -256.695    -129.822
  C      -96.362    -257.579    -129.886
  O      -95.427    -263.207    -128.116
  O      -94.102    -261.014    -128.498
  H     -100.252    -259.391    -132.969
  H      -93.669    -261.469    -129.262
  H      -94.349    -256.956    -129.610
  H      -96.174    -258.633    -129.709
  H      -99.685    -257.655    -130.012
  H      -98.499    -258.082    -132.528
  H      -97.014    -259.767    -131.569
  H      -99.606    -260.823    -130.259
  H      -95.063    -253.370    -130.231
  H      -98.085    -261.806    -128.571
  H      -93.802    -254.533    -129.892
  H      -97.824    -262.482    -130.201
  P      -97.284    -261.033    -133.829
  C      -97.900    -263.526    -134.320
  O      -97.798    -262.194    -134.809
  O      -95.999    -261.657    -133.120
  O      -96.993    -259.735    -134.517
  H      -95.355    -260.960    -132.887
  H      -98.256    -264.166    -135.100
  H      -98.584    -263.553    -133.497
  H      -96.937    -263.861    -133.995

 6  7  8  9  10  11  12  13  14  15  16  26  30  31  32  33  35 0
 6-311+G(2d,p)
 ****
 37  38 0
 6-311+G(2d,p)
 ****
 1  2  3  4  5  17  18  19  20  21  22  23  24  25 0
 3-21G
 ****
 27  28  29  34  36  39  40  41  42  43  44  45  46 0
 3-21G
 ****


