%nproc=1
%NoSave
%Mem=1900MB
#P OB98/GEN NMR

erre ene a

0 1
  C       88.093    -363.584     117.459
  O       88.859    -362.755     118.328
  P       88.132    -361.470     118.957
  C       90.245    -359.946     119.073
  O       89.213    -360.624     119.785
  C       90.990    -358.989     120.010
  O       90.144    -357.902     120.428
  C       91.458    -359.651     121.296
  O       92.620    -360.429     121.071
  C       91.686    -358.448     122.206
  O       93.025    -357.949     122.108
  C       90.669    -357.411     121.674
  N       89.603    -357.131     122.622
  C       89.982    -356.422     123.774
  O       91.154    -356.104     123.949
  N       89.015    -356.127     124.707
  C       87.794    -356.520     124.520
  N       86.883    -356.200     125.479
  C       87.360    -357.292     123.328
  C       88.307    -357.560     122.441
  O       87.201    -362.099     120.101
  O       87.332    -360.681     117.968
  H       93.590    -358.604     122.581
  H       86.381    -361.575     120.197
  H       86.335    -357.603     123.220
  H       88.084    -358.117     121.536
  H       91.179    -356.464     121.449
  H       91.525    -358.711     123.257
  H       90.652    -360.281     121.709
  H       91.851    -358.575     119.466
  H       87.214    -355.676     126.275
  H       89.824    -359.392     118.233
  H       85.907    -356.464     125.435
  H       90.928    -360.693     118.653
  P       92.444    -362.005     120.902
  C       94.747    -362.622     121.868
  O       93.935    -362.573     120.702
  O       91.846    -362.129     119.419
  O       91.594    -362.711     121.910
  H       91.600    -363.053     119.230
  H       95.645    -363.210     121.628
  H       94.214    -363.106     122.685
  H       95.057    -361.611     122.146
  H       88.699    -364.397     117.116
  H       87.759    -363.009     116.621
  H       87.246    -363.969     117.988

 3  4  5  6  7  8  9  10  11  12  13  21  23  27  28  29  30  32 0
 6-311+G(2d,p)
 ****
 34  35 0
 6-311+G(2d,p)
 ****
 1  2  14  15  16  17  18  19  20  22  24  25  26 0
 3-21G
 ****
 31  33  36  37  38  39  40  41  42  43  44  45  46 0
 3-21G
 ****


