%nproc=1
%NoSave
%Mem=1900MB
#P OB98/GEN NMR

erre ene a

0 1
  C      314.889    -557.759     115.832
  O      314.532    -556.595     115.120
  H      314.072    -558.020     116.510
  H      315.789    -557.571     116.424
  H      315.062    -558.600     115.156
  P      315.395    -556.178     113.839
  C      313.720    -556.424     111.891
  O      314.383    -555.533     112.776
  C      312.273    -555.976     111.650
  O      311.514    -556.159     112.872
  C      312.196    -554.486     111.297
  O      311.065    -554.182     110.487
  C      312.019    -553.829     112.658
  O      311.422    -552.534     112.581
  C      311.161    -554.862     113.383
  N      309.012    -553.921     117.910
  C      308.547    -553.623     116.646
  N      307.349    -552.995     116.576
  N      309.206    -553.897     115.546
  C      310.419    -554.458     115.770
  C      310.996    -554.775     116.975
  C      310.245    -554.503     118.182
  O      310.620    -554.724     119.328
  N      312.243    -555.323     116.804
  C      312.423    -555.333     115.495
  N      311.331    -554.840     114.825
  O      315.760    -557.581     113.157
  O      316.624    -555.368     114.122
  H      312.054    -551.951     112.120
  H      316.547    -557.491     112.590
  H      308.455    -553.716     118.719
  H      313.308    -555.696     114.991
  H      310.098    -554.699     113.176
  H      313.006    -553.704     113.108
  H      306.912    -552.598     117.393
  H      313.094    -554.123     110.804
  H      307.145    -552.501     115.705
  H      311.804    -556.610     110.889
  H      313.744    -557.411     112.353
  H      314.262    -556.493     110.945
  P      311.233    -553.114     109.305
  C      312.493    -554.808     107.706
  O      311.461    -553.871     107.917
  O      312.651    -552.437     109.607
  O      310.135    -552.101     109.230
  H      312.540    -551.493     109.819
  H      312.441    -555.176     106.703
  H      312.381    -555.622     108.391
  H      313.441    -554.337     107.864

 6  7  8  9  10  11  12  13  14  15  26  29  33  34 0
 6-311+G(2d,p)
 ****
 36  38  39  40  41 0
 6-311+G(2d,p)
 ****
 1  2  3  4  5  16  17  18  19  20  21  22  23  24  25 0
 3-21G
 ****
 27  28  30  31  32  35  37  42  43  44  45  46  47 0
 3-21G
 ****
 48  49 0
 3-21G
 ****


