%nproc=1
%NoSave
%Mem=1900MB
#P OB98/GEN NMR

erre ene a

0 1
  C      -52.108      30.777     -98.819
  O      -50.949      29.958     -98.640
  P      -50.377      29.224     -99.947
  C      -50.956      27.107    -101.334
  O      -51.342      27.990    -100.290
  C      -51.253      25.660    -100.935
  O      -50.377      25.205     -99.882
  C      -52.664      25.458    -100.397
  O      -53.617      25.476    -101.447
  C      -52.515      24.110     -99.698
  O      -52.567      23.036    -100.653
  C      -51.097      24.210     -99.111
  N      -49.988      22.629     -94.371
  C      -49.898      22.015     -95.573
  N      -50.215      22.506     -96.790
  C      -50.659      23.770     -96.694
  C      -50.802      24.525     -95.541
  C      -50.448      23.902     -94.332
  N      -50.555      24.522     -93.107
  N      -51.291      25.781     -95.840
  C      -51.460      25.775     -97.146
  N      -51.081      24.586     -97.710
  O      -49.037      28.524     -99.419
  O      -50.104      30.151    -101.085
  H      -53.457      23.051    -101.058
  H      -48.256      28.988     -99.776
  H      -49.520      20.997     -95.555
  H      -51.852      26.603     -97.726
  H      -50.545      23.266     -99.197
  H      -53.295      23.925     -98.953
  H      -52.905      26.237     -99.663
  H      -51.099      25.023    -101.818
  H      -49.891      27.217    -101.552
  H      -50.353      23.979     -92.282
  H      -50.977      25.438     -93.057
  H      -51.493      27.383    -102.248
  P      -54.741      26.618    -101.416
  C      -57.011      26.827    -100.230
  O      -55.882      26.004    -100.464
  O      -55.387      26.475    -102.870
  O      -54.250      27.977    -101.047
  H      -55.556      25.542    -103.101
  H      -57.716      26.278     -99.601
  H      -57.498      27.078    -101.176
  H      -56.707      27.739     -99.711
  H      -52.389      31.208     -97.881
  H      -52.913      30.179     -99.192
  H      -51.889      31.557     -99.518

 3  4  5  6  7  8  9  10  11  12  22  25  29  30  31  32 0
 6-311+G(2d,p)
 ****
 33  36  37 0
 6-311+G(2d,p)
 ****
 1  2  13  14  15  16  17  18  19  20  21  23  24  26 0
 3-21G
 ****
 27  28  34  35  38  39  40  41  42  43  44  45  46  47  48 0
 3-21G
 ****


