%nproc=1
%NoSave
%Mem=1900MB
#P OB98/GEN NMR

erre ene a

0 1
  C     -271.606     330.615     212.059
  O     -270.816     329.753     212.850
  H     -271.172     330.669     211.057
  H     -271.621     331.621     212.489
  H     -272.625     330.229     211.983
  P     -271.223     329.612     214.397
  C     -269.006     330.536     215.395
  O     -270.401     330.734     215.197
  C     -268.502     331.503     216.464
  O     -268.436     332.841     215.919
  C     -269.405     331.607     217.682
  O     -269.238     330.524     218.584
  C     -268.942     332.927     218.274
  O     -267.786     332.761     219.107
  C     -268.612     333.759     217.020
  N     -269.642     334.756     216.743
  C     -269.345     336.057     217.148
  O     -268.291     336.368     217.696
  N     -270.322     336.986     216.928
  C     -271.558     336.741     216.408
  O     -272.411     337.613     216.290
  C     -271.824     335.346     216.018
  C     -270.871     334.428     216.203
  O     -270.523     328.243     214.833
  O     -272.692     329.602     214.662
  H     -271.198     327.545     214.934
  H     -267.557     333.653     219.431
  H     -270.124     337.933     217.209
  H     -272.796     335.117     215.602
  H     -271.045     333.393     215.931
  H     -267.655     334.280     217.145
  H     -269.719     333.374     218.887
  H     -270.452     331.704     217.374
  H     -267.488     331.199     216.758
  H     -268.470     330.727     214.460
  H     -268.835     329.496     215.694
  P     -270.277     330.398     219.805
  C     -268.212     330.487     221.437
  O     -269.504     330.966     221.092
  O     -270.297     328.813     220.009
  O     -271.596     331.022     219.515
  H     -269.465     328.400     219.719
  H     -267.870     330.986     222.320
  H     -267.533     330.680     220.633
  H     -268.259     329.434     221.619

 6  7  8  9  10  11  12  13  14  15  16  27  31  32  33  34  35 0
 6-311+G(2d,p)
 ****
 36  37 0
 6-311+G(2d,p)
 ****
 1  2  3  4  5  17  18  19  20  21  22  23  24  25 0
 3-21G
 ****
 26  28  29  30  38  39  40  41  42  43  44  45 0
 3-21G
 ****


