%nproc=1
%NoSave
%Mem=1900MB
#P OB98/GEN NMR

erre ene a

0 1
  C     -717.983     435.601     794.914
  O     -717.770     434.878     796.108
  H     -718.587     436.482     795.145
  H     -718.502     434.994     794.177
  H     -717.025     435.947     794.499
  P     -716.987     433.476     796.022
  C     -715.008     433.993     797.606
  O     -716.225     433.290     797.427
  C     -714.624     434.059     799.085
  O     -715.527     434.997     799.766
  C     -714.740     432.697     799.818
  O     -713.770     432.697     800.880
  C     -716.153     432.786     800.394
  O     -716.370     431.795     801.367
  C     -716.177     434.249     800.829
  N     -717.535     434.746     801.075
  C     -718.109     434.411     802.309
  O     -717.462     433.746     803.122
  N     -719.381     434.840     802.582
  C     -720.055     435.464     801.661
  N     -721.330     435.846     801.996
  C     -719.521     435.781     800.328
  C     -718.259     435.397     800.099
  O     -716.129     433.283     794.805
  O     -718.155     432.382     796.097
  H     -717.263     431.895     801.779
  H     -718.305     432.000     795.213
  H     -720.128     436.290     799.599
  H     -717.770     435.577     799.141
  H     -715.592     434.398     801.742
  H     -716.893     432.616     799.606
  H     -714.588     431.841     799.162
  H     -713.612     434.463     799.179
  H     -721.659     435.595     802.918
  H     -715.144     435.008     797.206
  H     -721.955     436.327     801.360
  H     -714.198     433.502     797.051
  P     -713.438     431.385     801.742
  C     -710.863     431.213     801.500
  O     -711.966     431.526     802.360
  O     -713.672     430.099     801.026
  O     -714.386     431.495     803.038
  H     -714.623     430.599     803.342
  H     -709.945     431.348     802.033
  H     -710.879     431.861     800.649
  H     -710.941     430.196     801.176

 6  7  8  9  10  11  12  13  14  15  16  26  30  31  32  33  35 0
 6-311+G(2d,p)
 ****
 37  38 0
 6-311+G(2d,p)
 ****
 1  2  3  4  5  17  18  19  20  21  22  23  24  25 0
 3-21G
 ****
 27  28  29  34  36  39  40  41  42  43  44  45  46 0
 3-21G
 ****


