%nproc=1
%NoSave
%Mem=1900MB
#P OB98/GEN NMR

erre ene a

0 1
  C      298.454     165.555    -320.160
  O      297.941     164.637    -319.218
  H      298.429     165.122    -321.164
  H      297.831     166.455    -320.151
  H      299.479     165.833    -319.900
  P      298.721     163.242    -319.064
  C      296.421     162.150    -318.548
  O      297.621     162.098    -319.307
  C      295.350     161.304    -319.228
  O      294.943     161.917    -320.472
  C      295.801     159.895    -319.593
  O      295.745     159.011    -318.487
  C      294.763     159.532    -320.642
  O      293.521     159.188    -319.997
  C      294.619     160.853    -321.408
  N      295.120     159.766    -326.382
  C      294.129     159.516    -325.501
  N      294.074     159.836    -324.191
  C      295.189     160.478    -323.811
  C      296.287     160.795    -324.595
  C      296.224     160.418    -325.947
  N      297.239     160.657    -326.847
  N      297.258     161.428    -323.842
  C      296.738     161.520    -322.633
  N      295.495     160.951    -322.562
  O      299.008     163.143    -317.492
  O      299.962     163.101    -319.881
  H      292.919     158.876    -320.700
  H      299.740     162.521    -317.324
  H      293.267     158.987    -325.900
  H      297.221     161.985    -321.784
  H      293.593     161.024    -321.759
  H      295.054     158.677    -321.253
  H      296.796     159.896    -320.057
  H      294.472     161.274    -318.570
  H      296.078     163.187    -318.489
  H      297.175     160.186    -327.735
  H      298.121     161.004    -326.494
  H      296.615     161.779    -317.538
  P      296.758     157.765    -318.486
  C      295.151     156.527    -316.856
  O      295.878     156.487    -318.082
  O      297.657     158.028    -317.190
  O      297.576     157.627    -319.728
  H      298.535     157.613    -317.288
  H      294.617     155.609    -316.728
  H      294.458     157.342    -316.879
  H      295.832     156.660    -316.042

 6  7  8  9  10  11  12  13  14  15  25  28  32  33  34  35 0
 6-311+G(2d,p)
 ****
 36  39  40 0
 6-311+G(2d,p)
 ****
 1  2  3  4  5  16  17  18  19  20  21  22  23  24 0
 3-21G
 ****
 26  27  29  30  31  37  38  41  42  43  44  45  46  47 0
 3-21G
 ****
 48 0
 3-21G
 ****


