%nproc=1
%NoSave
%Mem=1900MB
#P OB98/GEN NMR

erre ene a

0 1
  C       19.193      72.614    -177.724
  O       20.517      72.129    -177.621
  P       20.849      70.621    -178.041
  C       19.676      68.340    -177.826
  O       19.794      69.663    -177.303
  C       18.972      67.434    -176.818
  O       19.723      67.372    -175.584
  C       17.580      67.910    -176.423
  O       16.641      67.621    -177.442
  C       17.363      67.141    -175.124
  O       16.932      65.796    -175.397
  C       18.776      67.140    -174.517
  N       18.400      68.036    -169.505
  C       18.013      66.987    -170.265
  N       18.115      66.842    -171.606
  C       18.663      67.937    -172.159
  C       19.075      69.093    -171.518
  C       18.953      69.114    -170.116
  N       19.404      70.149    -169.326
  N       19.563      70.008    -172.435
  C       19.432      69.412    -173.607
  N       18.954      68.138    -173.484
  O       22.282      70.216    -177.890
  O       20.400      70.543    -179.575
  H       16.707      65.382    -174.544
  H       21.172      70.318    -180.131
  H       17.568      66.155    -169.727
  H       19.679      69.855    -174.561
  H       19.031      66.167    -174.077
  H       16.606      67.601    -174.481
  H       17.597      68.988    -176.202
  H       18.929      66.420    -177.241
  H       20.682      67.961    -178.030
  H       19.397      69.998    -168.328
  H       20.076      70.803    -169.723
  H       19.116      68.372    -178.765
  P       15.330      68.531    -177.595
  C       13.136      68.849    -176.303
  O       14.299      68.059    -176.462
  O       14.767      68.628    -178.977
  O       15.803      69.967    -177.062
  H       15.322      70.670    -177.541
  H       13.384      69.755    -175.743
  H       12.393      68.276    -175.743
  H       12.713      69.127    -177.276
  H       19.161      73.634    -177.402
  H       18.548      72.025    -177.106
  H       18.868      72.550    -178.741

 3  4  5  6  7  8  9  10  11  12  22  25  29  30  31  32 0
 6-311+G(2d,p)
 ****
 33  36  37 0
 6-311+G(2d,p)
 ****
 1  2  13  14  15  16  17  18  19  20  21  23  24  26 0
 3-21G
 ****
 27  28  34  35  38  39  40  41  42  43  44  45  46  47  48 0
 3-21G
 ****


