%nproc=1
%NoSave
%Mem=1900MB
#P OB98/GEN NMR

erre ene a

0 1
  C     -399.583     421.768     169.423
  O     -400.756     421.679     170.202
  H     -399.771     422.439     168.580
  H     -399.308     420.784     169.032
  H     -398.763     422.172     170.020
  P     -400.728     420.658     171.440
  C     -402.547     419.139     170.369
  O     -401.224     419.237     170.883
  C     -402.672     417.873     169.525
  O     -402.128     418.113     168.206
  C     -401.898     416.684     170.071
  O     -402.570     416.036     171.139
  C     -401.803     415.808     168.834
  O     -402.977     415.004     168.660
  C     -401.661     416.842     167.700
  N     -400.290     416.920     167.205
  C     -399.819     415.781     166.554
  O     -400.496     414.768     166.392
  N     -398.523     415.834     166.124
  C     -397.655     416.865     166.323
  O     -396.485     416.826     165.961
  C     -398.202     418.035     167.033
  C     -399.474     418.010     167.440
  O     -401.945     421.157     172.351
  O     -399.440     420.621     172.195
  H     -401.600     421.610     173.143
  H     -402.943     414.672     167.741
  H     -398.165     415.021     165.650
  H     -397.538     418.872     167.207
  H     -399.897     418.856     167.971
  H     -402.315     416.583     166.860
  H     -400.955     415.132     168.898
  H     -400.888     416.989     170.368
  H     -403.736     417.628     169.420
  H     -402.764     420.009     169.741
  H     -403.253     419.123     171.207
  P     -401.775     414.887     171.939
  C     -403.499     413.051     171.170
  O     -402.155     413.510     171.208
  O     -402.596     414.864     173.309
  O     -400.318     415.170     172.070
  H     -403.516     415.156     173.185
  H     -403.544     412.122     170.641
  H     -404.109     413.775     170.672
  H     -403.856     412.910     172.169

 6  7  8  9  10  11  12  13  14  15  16  27  31  32  33  34  35 0
 6-311+G(2d,p)
 ****
 36  37 0
 6-311+G(2d,p)
 ****
 1  2  3  4  5  17  18  19  20  21  22  23  24  25 0
 3-21G
 ****
 26  28  29  30  38  39  40  41  42  43  44  45 0
 3-21G
 ****


