%nproc=1
%NoSave
%Mem=1900MB
#P OB98/GEN NMR

erre ene a

0 1
  C      177.130     430.444     452.931
  O      176.096     431.367     452.657
  H      177.727     430.833     453.759
  H      177.767     430.330     452.054
  H      176.719     429.470     453.219
  P      174.882     430.912     451.720
  C      174.601     433.464     451.395
  O      173.954     432.203     451.487
  C      173.585     434.585     451.130
  O      172.717     434.180     450.033
  C      172.682     434.819     452.348
  O      172.203     436.169     452.400
  C      171.510     433.899     452.083
  O      170.317     434.290     452.771
  C      171.399     433.974     450.558
  N      167.116     431.526     449.227
  C      167.272     432.661     449.995
  N      166.127     433.219     450.480
  N      168.429     433.186     450.298
  C      169.484     432.479     449.810
  C      169.465     431.333     449.049
  C      168.172     430.785     448.702
  O      167.980     429.766     448.035
  N      170.737     430.902     448.753
  C      171.524     431.785     449.336
  N      170.815     432.773     449.968
  O      173.979     430.006     452.684
  O      175.268     430.172     450.472
  H      169.611     433.668     452.515
  H      173.421     429.398     452.159
  H      166.199     431.177     449.004
  H      172.610     431.768     449.310
  H      170.776     434.827     450.261
  H      171.769     432.901     452.445
  H      165.244     432.734     450.436
  H      173.169     434.582     453.290
  H      166.238     433.842     451.285
  H      174.106     435.497     450.804
  H      175.329     433.390     450.578
  H      175.167     433.669     452.319
  P      173.278     437.347     452.595
  C      172.049     439.318     453.886
  O      172.527     438.759     452.672
  O      174.042     437.408     451.195
  O      174.221     437.147     453.747
  H      174.989     437.165     451.314
  H      171.586     440.261     453.686
  H      172.868     439.459     454.561
  H      171.334     438.655     454.326

 6  7  8  9  10  11  12  13  14  15  26  29  33  34 0
 6-311+G(2d,p)
 ****
 36  38  39  40  41 0
 6-311+G(2d,p)
 ****
 1  2  3  4  5  16  17  18  19  20  21  22  23  24  25 0
 3-21G
 ****
 27  28  30  31  32  35  37  42  43  44  45  46  47 0
 3-21G
 ****
 48  49 0
 3-21G
 ****


