%nproc=1
%NoSave
%Mem=1900MB
#P OB98/GEN NMR

erre ene a

0 1
  C     -223.179    -254.308     500.042
  O     -221.995    -255.074     500.164
  H     -222.976    -253.291     500.388
  H     -223.967    -254.742     500.661
  H     -223.501    -254.269     498.996
  P     -222.027    -256.553     499.539
  C     -222.076    -257.293     497.022
  O     -221.608    -256.386     498.002
  C     -221.690    -256.817     495.618
  O     -222.272    -255.507     495.394
  C     -220.181    -256.702     495.400
  O     -219.889    -257.069     494.051
  C     -219.911    -255.218     495.588
  O     -218.714    -254.802     494.938
  C     -221.207    -254.608     495.025
  N     -221.445    -253.254     495.526
  C     -221.092    -252.199     494.682
  O     -220.588    -252.429     493.578
  N     -221.272    -250.909     495.112
  C     -221.707    -250.693     496.313
  N     -221.840    -249.392     496.696
  C     -222.054    -251.774     497.259
  C     -221.906    -253.017     496.800
  O     -223.599    -256.850     499.477
  O     -221.241    -257.565     500.308
  H     -218.019    -255.479     495.103
  H     -224.119    -256.103     499.134
  H     -222.401    -251.541     498.254
  H     -222.146    -253.872     497.424
  H     -221.167    -254.568     493.931
  H     -219.811    -254.985     496.654
  H     -219.606    -257.329     496.087
  H     -222.144    -257.495     494.885
  H     -221.572    -248.680     496.027
  H     -223.165    -257.394     497.081
  H     -222.116    -249.103     497.623
  H     -221.634    -258.273     497.226
  P     -219.456    -258.569     493.715
  C     -220.664    -260.807     494.192
  O     -220.764    -259.499     493.645
  O     -218.329    -259.118     494.525
  O     -219.022    -258.478     492.168
  H     -218.225    -259.025     492.048
  H     -221.600    -261.313     494.079
  H     -220.417    -260.741     495.231
  H     -219.900    -261.351     493.677

 6  7  8  9  10  11  12  13  14  15  16  26  30  31  32  33  35 0
 6-311+G(2d,p)
 ****
 37  38 0
 6-311+G(2d,p)
 ****
 1  2  3  4  5  17  18  19  20  21  22  23  24  25 0
 3-21G
 ****
 27  28  29  34  36  39  40  41  42  43  44  45  46 0
 3-21G
 ****


