%nproc=1
%NoSave
%Mem=1900MB
#P OB98/GEN NMR

erre ene a

0 1
  C      161.183     -51.755     329.257
  O      162.107     -51.883     328.173
  P      162.183     -53.238     327.319
  C      163.901     -54.788     328.410
  O      162.520     -54.460     328.306
  C      164.258     -55.518     329.714
  O      163.773     -56.884     329.696
  C      165.755     -55.577     330.029
  O      165.859     -55.524     331.455
  C      166.141     -56.948     329.510
  O      167.369     -57.417     330.054
  C      164.896     -57.763     329.883
  N      164.772     -58.983     329.091
  C      165.115     -60.181     329.716
  O      165.560     -60.178     330.864
  N      164.996     -61.353     329.009
  C      164.658     -61.317     327.759
  N      164.583     -62.507     327.104
  C      164.368     -60.063     327.033
  C      164.433     -58.949     327.758
  O      163.049     -53.165     326.104
  O      160.657     -53.514     326.902
  H      167.232     -57.601     331.009
  H      160.638     -53.984     326.048
  H      164.115     -60.079     325.984
  H      164.233     -57.978     327.319
  H      164.923     -58.042     330.945
  H      166.255     -56.912     328.418
  H      166.330     -54.772     329.567
  H      163.727     -55.007     330.527
  H      164.812     -63.340     327.630
  H      164.482     -53.863     328.351
  H      164.440     -62.583     326.107
  H      164.186     -55.405     327.552
  P      166.513     -54.278     332.215
  C      168.995     -54.846     332.474
  O      168.024     -54.162     331.701
  O      166.361     -54.296     333.701
  O      165.807     -52.986     331.576
  H      165.938     -52.223     332.166
  H      169.936     -54.876     331.919
  H      168.674     -55.872     332.682
  H      169.154     -54.314     333.417
  H      161.283     -50.786     329.699
  H      161.389     -52.505     329.992
  H      160.185     -51.879     328.891

 3  4  5  6  7  8  9  10  11  12  13  23  27  28  29  30  32 0
 6-311+G(2d,p)
 ****
 34  35 0
 6-311+G(2d,p)
 ****
 1  2  14  15  16  17  18  19  20  21  22  24  25  26 0
 3-21G
 ****
 31  33  36  37  38  39  40  41  42  43  44  45  46 0
 3-21G
 ****


