%nproc=1
%NoSave
%Mem=1900MB
#P OB98/GEN NMR

erre ene a

0 1
  C      352.541     224.287    -300.553
  O      353.706     224.942    -300.097
  H      351.748     224.360    -299.804
  H      352.200     224.771    -301.473
  H      352.755     223.236    -300.766
  P      354.349     224.407    -298.729
  C      355.958     222.624    -299.709
  O      355.832     223.891    -299.076
  C      357.391     222.425    -300.195
  O      357.624     221.005    -300.362
  C      357.720     223.124    -301.527
  O      358.817     224.026    -301.356
  C      358.164     221.995    -302.446
  O      359.275     222.346    -303.269
  C      358.510     220.869    -301.481
  N      360.529     216.206    -301.876
  C      360.653     217.153    -300.919
  N      360.006     218.335    -300.822
  C      359.128     218.481    -301.831
  C      358.873     217.590    -302.860
  C      359.636     216.410    -302.871
  N      359.550     215.468    -303.873
  N      357.910     218.095    -303.716
  C      357.621     219.286    -303.234
  N      358.348     219.573    -302.107
  O      353.539     223.053    -298.448
  O      354.262     225.350    -297.577
  H      358.956     223.025    -303.895
  H      353.237     223.038    -297.520
  H      361.376     216.943    -300.140
  H      356.939     219.997    -303.681
  H      359.541     220.944    -301.110
  H      357.326     221.718    -303.097
  H      356.861     223.657    -301.946
  H      358.072     222.774    -299.406
  H      355.282     222.577    -300.569
  H      360.214     214.711    -303.862
  H      358.965     215.667    -304.673
  H      355.674     221.841    -298.999
  P      358.549     225.568    -301.730
  C      358.259     226.529    -299.328
  O      359.065     226.458    -300.499
  O      356.954     225.688    -301.630
  O      359.056     225.963    -303.076
  H      356.634     226.403    -302.214
  H      358.736     227.156    -298.604
  H      358.133     225.547    -298.922
  H      357.302     226.937    -299.578

 6  7  8  9  10  11  12  13  14  15  25  28  32  33  34  35 0
 6-311+G(2d,p)
 ****
 36  39  40 0
 6-311+G(2d,p)
 ****
 1  2  3  4  5  16  17  18  19  20  21  22  23  24 0
 3-21G
 ****
 26  27  29  30  31  37  38  41  42  43  44  45  46  47  48 0
 3-21G
 ****


