%nproc=1
%NoSave
%Mem=1900MB
#P OB98/GEN NMR

erre ene a

0 1
  C     -237.252     763.163     124.782
  O     -238.485     763.357     125.462
  P     -238.893     764.798     126.057
  C     -237.193     764.679     127.994
  O     -238.551     764.708     127.618
  C     -237.073     764.661     129.515
  O     -237.411     765.943     130.063
  C     -238.006     763.652     130.212
  O     -237.511     762.323     130.072
  C     -238.019     764.204     131.627
  O     -236.829     763.809     132.332
  C     -237.999     765.727     131.381
  N     -239.307     766.351     131.478
  C     -239.573     767.025     132.669
  O     -238.751     767.094     133.572
  N     -240.815     767.644     132.802
  C     -241.679     767.577     131.844
  N     -242.838     768.269     132.001
  C     -241.446     766.830     130.585
  C     -240.249     766.244     130.475
  O     -240.268     765.244     125.730
  O     -237.746     765.786     125.509
  H     -236.093     763.865     131.688
  H     -237.945     766.170     124.622
  H     -242.200     766.795     129.829
  H     -239.992     765.706     129.584
  H     -237.305     766.214     132.082
  H     -238.887     763.892     132.209
  H     -239.002     763.717     129.774
  H     -236.014     764.440     129.774
  H     -242.883     768.898     132.794
  H     -236.703     765.593     127.624
  H     -243.426     768.517     131.212
  H     -236.699     763.804     127.546
  P     -238.202     761.380     128.965
  C     -240.411     761.047     130.315
  O     -239.245     760.453     129.773
  O     -237.024     760.403     128.540
  O     -238.788     762.131     127.815
  H     -236.642     760.682     127.677
  H     -241.096     760.253     130.601
  H     -240.900     761.662     129.550
  H     -240.161     761.658     131.182
  H     -237.174     762.143     124.468
  H     -236.441     763.397     125.440
  H     -237.212     763.803     123.926

 3  4  5  6  7  8  9  10  11  12  13  23  27  28  29  30  32 0
 6-311+G(2d,p)
 ****
 34  35 0
 6-311+G(2d,p)
 ****
 1  2  14  15  16  17  18  19  20  21  22  24  25  26 0
 3-21G
 ****
 31  33  36  37  38  39  40  41  42  43  44  45  46 0
 3-21G
 ****


