%nproc=1
%NoSave
%Mem=1900MB
#P OB98/GEN NMR

erre ene a

0 1
  C     -329.716    -898.690     398.572
  O     -328.523    -899.440     398.271
  P     -327.614    -898.950     397.053
  C     -325.486    -898.900     398.557
  O     -326.325    -898.200     397.644
  C     -324.028    -898.470     398.381
  O     -323.566    -898.750     397.038
  C     -323.808    -896.980     398.562
  O     -323.791    -896.640     399.948
  C     -322.487    -896.760     397.856
  O     -321.369    -896.920     398.763
  C     -322.472    -897.860     396.771
  N     -322.546    -897.330     395.422
  C     -321.335    -896.860     394.887
  O     -320.298    -896.900     395.565
  N     -321.341    -896.330     393.614
  C     -322.450    -896.270     392.949
  N     -322.406    -895.740     391.699
  C     -323.761    -896.720     393.494
  C     -323.726    -897.240     394.729
  O     -328.481    -897.740     396.424
  O     -327.327    -900.000     396.032
  H     -321.484    -897.810     399.151
  H     -328.347    -897.700     395.461
  H     -324.666    -896.640     392.912
  H     -324.632    -897.610     395.213
  H     -321.550    -898.470     396.849
  H     -322.390    -895.750     397.454
  H     -324.606    -896.420     398.030
  H     -323.405    -899.020     399.096
  H     -321.498    -895.440     391.364
  H     -325.580    -899.970     398.410
  H     -323.220    -895.630     391.106
  H     -325.840    -898.700     399.582
  P     -324.835    -895.520     400.450
  C     -325.947    -897.240     401.991
  O     -326.134    -896.330     400.907
  O     -325.329    -894.870     399.050
  O     -324.300    -894.490     401.382
  H     -325.900    -894.100     399.227
  H     -326.939    -897.570     402.339
  H     -325.408    -896.750     402.815
  H     -325.395    -898.120     401.639
  H     -330.216    -899.136     399.406
  H     -330.365    -898.696     397.722
  H     -329.452    -897.681     398.812

 3  4  5  6  7  8  9  10  11  12  13  21  23  27  28  29  30  32 0
 6-311+G(2d,p)
 ****
 34  35 0
 6-311+G(2d,p)
 ****
 1  2  14  15  16  17  18  19  20  22  24  25  26 0
 3-21G
 ****
 31  33  36  37  38  39  40  41  42  43  44  45  46 0
 3-21G
 ****


