%nproc=1
%NoSave
%Mem=1900MB
#P OB98/GEN NMR

erre ene a

0 1
  C     1120.855     148.401     292.928
  O     1120.728     147.532     294.037
  H     1121.901     148.411     292.607
  H     1120.565     149.412     293.217
  H     1120.233     148.061     292.096
  P     1119.235     147.212     294.535
  C     1119.604     148.395     296.814
  O     1119.285     147.188     296.139
  C     1119.412     148.224     298.323
  O     1118.074     147.754     298.616
  C     1120.368     147.219     298.965
  O     1121.634     147.801     299.247
  C     1119.613     146.897     300.239
  O     1119.774     147.967     301.190
  C     1118.157     146.833     299.745
  N     1116.710     142.238     301.320
  C     1117.100     143.350     302.048
  N     1117.117     143.212     303.399
  N     1117.458     144.494     301.519
  C     1117.398     144.482     300.161
  C     1117.027     143.450     299.334
  C     1116.636     142.197     299.935
  O     1116.252     141.192     299.340
  N     1117.083     143.827     298.008
  C     1117.519     145.071     298.040
  N     1117.719     145.516     299.328
  O     1119.039     145.667     294.147
  O     1118.165     148.063     293.934
  H     1120.730     148.044     301.371
  H     1118.108     145.531     293.874
  H     1116.464     141.380     301.785
  H     1117.692     145.688     297.175
  H     1117.443     147.186     300.497
  H     1119.971     145.979     300.724
  H     1116.909     142.349     303.868
  H     1120.471     146.309     298.359
  H     1117.363     144.015     303.957
  H     1119.520     149.211     298.792
  H     1118.941     149.195     296.459
  H     1120.641     148.666     296.594
  P     1122.947     147.021     298.752
  C     1124.013     145.928     300.849
  O     1123.968     147.055     299.983
  O     1123.590     148.051     297.696
  O     1122.689     145.681     298.137
  H     1124.162     147.569     297.069
  H     1124.738     146.098     301.618
  H     1124.285     145.058     300.288
  H     1123.050     145.780     301.292

 6  7  8  9  10  11  12  13  14  15  26  29  33  34 0
 6-311+G(2d,p)
 ****
 36  38  39  40  41 0
 6-311+G(2d,p)
 ****
 1  2  3  4  5  16  17  18  19  20  21  22  23  24  25 0
 3-21G
 ****
 27  28  30  31  32  35  37  42  43  44  45  46  47 0
 3-21G
 ****
 48  49 0
 3-21G
 ****


