%nproc=1
%NoSave
%Mem=1900MB
#P OB98/GEN NMR

erre ene a

0 1
  C     -883.691     -94.543    -849.480
  O     -882.786     -94.656    -848.399
  H     -883.324     -93.777    -850.171
  H     -884.683     -94.243    -849.125
  H     -883.756     -95.489    -850.022
  P     -883.170     -95.707    -847.254
  C     -883.161     -93.722    -845.595
  O     -883.888     -94.826    -846.121
  C     -884.006     -92.981    -844.558
  O     -885.062     -92.254    -845.205
  C     -884.669     -93.881    -843.531
  O     -883.762     -94.189    -842.474
  C     -885.795     -92.978    -843.039
  O     -885.276     -92.041    -842.065
  C     -886.209     -92.224    -844.312
  N     -891.306     -92.844    -844.250
  C     -890.445     -92.395    -843.301
  N     -889.097     -92.310    -843.371
  C     -888.648     -92.734    -844.573
  C     -889.409     -93.210    -845.631
  C     -890.798     -93.259    -845.438
  N     -891.677     -93.714    -846.397
  N     -888.608     -93.561    -846.691
  C     -887.394     -93.232    -846.302
  N     -887.354     -92.767    -845.017
  O     -882.062     -96.597    -846.796
  O     -884.410     -96.470    -847.936
  H     -886.021     -91.449    -841.828
  H     -884.979     -95.831    -848.408
  H     -890.889     -92.072    -842.368
  H     -886.495     -93.307    -846.933
  H     -886.440     -91.171    -844.111
  H     -886.597     -93.528    -842.547
  H     -885.105     -94.773    -843.984
  H     -883.351     -92.239    -844.058
  H     -882.879     -93.039    -846.399
  H     -892.622     -93.888    -846.106
  H     -891.288     -94.140    -847.227
  H     -882.248     -94.110    -845.131
  P     -884.170     -95.213    -841.315
  C     -884.083     -93.294    -839.592
  O     -884.884     -94.307    -840.193
  O     -883.055     -96.083    -840.823
  O     -885.390     -96.057    -841.936
  H     -885.532     -96.869    -841.406
  H     -884.664     -92.763    -838.868
  H     -883.744     -92.614    -840.345
  H     -883.240     -93.744    -839.112

 6  7  8  9  10  11  12  13  14  15  25  28  32  33  34  35 0
 6-311+G(2d,p)
 ****
 36  39  40 0
 6-311+G(2d,p)
 ****
 1  2  3  4  5  16  17  18  19  20  21  22  23  24 0
 3-21G
 ****
 26  27  29  30  31  37  38  41  42  43  44  45  46  47 0
 3-21G
 ****
 48 0
 3-21G
 ****


