%nproc=1
%NoSave
%Mem=1900MB
#P OB98/GEN NMR

erre ene a

0 1
  C     -234.210      59.474      29.399
  O     -233.076      59.642      30.235
  P     -232.236      61.006      30.095
  C     -230.353      61.856      28.505
  O     -231.270      60.823      28.826
  C     -229.813      61.675      27.086
  O     -230.937      61.626      26.165
  C     -228.880      62.789      26.601
  O     -227.929      62.184      25.714
  C     -229.807      63.695      25.810
  O     -229.111      64.520      24.878
  C     -230.737      62.661      25.177
  N     -233.231      65.250      21.615
  C     -231.887      64.924      21.696
  N     -231.120      65.288      20.648
  N     -231.352      64.294      22.710
  C     -232.249      63.979      23.675
  C     -233.594      64.278      23.725
  C     -234.178      64.942      22.582
  O     -235.376      65.173      22.428
  N     -234.153      63.873      24.910
  C     -233.172      63.255      25.534
  N     -232.010      63.250      24.807
  O     -231.239      60.937      31.342
  O     -233.043      62.267      30.073
  H     -228.267      64.793      25.292
  H     -231.604      61.417      32.113
  H     -233.590      65.715      20.799
  H     -233.241      62.789      26.505
  H     -230.310      62.204      24.281
  H     -230.356      64.353      26.497
  H     -231.472      65.749      19.823
  H     -228.366      63.312      27.410
  H     -230.137      65.032      20.670
  H     -229.305      60.698      27.029
  H     -229.512      61.815      29.205
  H     -230.845      62.831      28.611
  P     -226.372      62.475      25.975
  C     -224.733      64.424      25.509
  O     -226.074      63.977      25.517
  O     -225.652      61.596      24.840
  O     -225.883      62.086      27.331
  H     -224.793      61.279      25.170
  H     -224.653      65.275      24.820
  H     -224.049      63.637      25.171
  H     -224.448      64.750      26.511
  H     -234.665      58.527      29.602
  H     -233.906      59.511      28.374
  H     -234.914      60.257      29.591

 3  4  5  6  7  8  9  10  11  12  23  26  30  31 0
 6-311+G(2d,p)
 ****
 33  35  36  37  38 0
 6-311+G(2d,p)
 ****
 1  2  13  14  15  16  17  18  19  20  21  22  24  25 0
 3-21G
 ****
 27  28  29  32  34  39  40  41  42  43  44  45  46  47  48  49 0
 3-21G
 ****


