%nproc=1
%NoSave
%Mem=1900MB
#P OB98/GEN NMR

erre ene a

0 1
  C      -69.997       9.139     124.968
  O      -71.026      10.107     125.076
  P      -70.608      11.650     125.183
  C      -70.899      11.824     127.758
  O      -70.010      11.899     126.653
  C      -70.137      11.956     129.078
  O      -71.084      12.055     130.177
  C      -69.219      10.766     129.378
  O      -68.057      11.231     130.083
  C      -70.029       9.929     130.345
  O      -69.192       9.091     131.141
  C      -70.762      11.020     131.126
  N      -72.594       8.811     135.284
  C      -71.368       9.411     135.078
  N      -70.481       9.331     136.093
  N      -71.042      10.035     133.979
  C      -72.027      10.029     133.047
  C      -73.288       9.482     133.142
  C      -73.628       8.781     134.361
  O      -74.686       8.205     134.594
  N      -74.018       9.705     132.005
  C      -73.192      10.350     131.203
  N      -71.959      10.535     131.777
  O      -72.022      12.401     125.223
  O      -69.769      12.148     124.056
  H      -68.588       9.679     131.633
  H      -72.193      12.829     124.362
  H      -72.793       8.329     136.147
  H      -73.423      10.679     130.198
  H      -70.118      11.465     131.894
  H      -70.726       9.289     129.794
  H      -70.645       8.806     136.940
  H      -68.905      10.201     128.494
  H      -69.559       9.724     135.951
  H      -69.567      12.891     129.062
  H      -71.411      10.861     127.737
  H      -71.651      12.614     127.677
  P      -66.801      10.230     130.105
  C      -66.705      10.337     132.703
  O      -66.821       9.534     131.546
  O      -65.545      11.218     130.176
  O      -66.734       9.307     128.933
  H      -64.753      10.787     129.800
  H      -67.623      10.245     133.290
  H      -66.540      11.391     132.464
  H      -65.864       9.977     133.301
  H      -70.431       8.163     124.906
  H      -69.364       9.194     125.829
  H      -69.419       9.329     124.088

 3  4  5  6  7  8  9  10  11  12  23  26  30  31 0
 6-311+G(2d,p)
 ****
 33  35  36  37  38 0
 6-311+G(2d,p)
 ****
 1  2  13  14  15  16  17  18  19  20  21  22  24  25 0
 3-21G
 ****
 27  28  29  32  34  39  40  41  42  43  44  45  46  47  48  49 0
 3-21G
 ****


