%nproc=1
%NoSave
%Mem=1900MB
#P OB98/GEN NMR

erre ene a

0 1
  C      -56.710      44.760      42.955
  O      -56.409      44.889      44.331
  H      -56.552      43.720      42.657
  H      -56.049      45.400      42.364
  H      -57.753      45.028      42.770
  P      -56.521      46.366      44.947
  C      -53.934      46.434      44.814
  O      -55.090      46.694      45.597
  C      -52.784      45.965      45.700
  O      -51.626      45.634      44.903
  C      -52.327      46.989      46.733
  O      -53.146      46.943      47.889
  C      -50.904      46.524      47.001
  O      -50.888      45.405      47.914
  C      -50.438      46.091      45.604
  N      -46.106      48.597      44.944
  C      -46.452      47.648      45.884
  N      -45.513      47.337      46.805
  N      -47.618      47.061      45.929
  C      -48.477      47.510      44.984
  C      -48.256      48.446      44.000
  C      -46.942      49.047      43.930
  O      -46.549      49.832      43.072
  N      -49.371      48.618      43.219
  C      -50.271      47.814      43.752
  N      -49.779      47.125      44.829
  O      -57.467      46.166      46.225
  O      -57.070      47.404      44.029
  H      -49.967      45.140      48.077
  H      -58.053      46.942      46.306
  H      -45.184      48.993      44.939
  H      -51.283      47.690      43.391
  H      -49.744      45.244      45.649
  H      -50.305      47.308      47.467
  H      -44.732      47.946      46.999
  H      -52.304      47.998      46.304
  H      -45.795      46.696      47.537
  H      -53.107      45.039      46.194
  H      -53.643      47.355      44.298
  H      -54.166      45.665      44.071
  P      -53.886      48.288      48.347
  C      -51.826      49.661      49.126
  O      -53.006      48.968      49.504
  O      -55.172      47.739      49.127
  O      -54.285      49.191      47.230
  H      -55.969      47.857      48.576
  H      -51.350      50.057      49.999
  H      -52.080      50.462      48.464
  H      -51.159      48.986      48.631

 6  7  8  9  10  11  12  13  14  15  26  29  33  34 0
 6-311+G(2d,p)
 ****
 36  38  39  40  41 0
 6-311+G(2d,p)
 ****
 1  2  3  4  5  16  17  18  19  20  21  22  23  24  25 0
 3-21G
 ****
 27  28  30  31  32  35  37  42  43  44  45  46  47 0
 3-21G
 ****
 48  49 0
 3-21G
 ****


