%nproc=1
%NoSave
%Mem=1900MB
#P OB98/GEN NMR

erre ene a

0 1
  C      171.840      38.379    -162.668
  O      172.959      38.843    -163.428
  P      172.817      40.170    -164.310
  C      173.228      42.683    -163.855
  O      173.671      41.348    -163.637
  C      174.204      43.672    -163.211
  O      174.018      43.743    -161.776
  C      175.662      43.268    -163.391
  O      176.190      43.354    -164.699
  C      176.357      44.071    -162.306
  O      176.622      45.407    -162.730
  C      175.296      44.058    -161.181
  N      175.625      43.122    -160.105
  C      176.521      43.586    -159.146
  O      177.053      44.693    -159.197
  N      176.815      42.713    -158.134
  C      176.340      41.439    -158.010
  O      176.654      40.690    -157.095
  C      175.416      40.997    -159.068
  C      175.106      41.845    -160.051
  O      171.428      40.537    -164.709
  O      173.693      39.820    -165.614
  H      175.801      45.757    -163.123
  H      173.214      40.159    -166.394
  H      177.455      43.033    -157.426
  H      175.023      39.992    -159.005
  H      174.427      41.539    -160.839
  H      175.197      45.056    -160.736
  H      177.320      43.627    -162.029
  H      175.755      42.209    -163.107
  H      174.012      44.667    -163.617
  H      172.227      42.814    -163.438
  H      173.138      42.857    -164.933
  P      176.593      42.071    -165.571
  C      176.967      41.761    -168.116
  O      177.162      42.575    -166.981
  O      175.637      40.925    -165.589
  O      177.940      41.596    -164.829
  H      177.997      40.624    -164.885
  H      177.431      42.249    -168.979
  H      175.903      41.631    -168.318
  H      177.442      40.786    -167.972
  H      172.111      37.487    -162.143
  H      171.023      38.171    -163.327
  H      171.549      39.132    -161.966

 3  4  5  6  7  8  9  10  11  12  13  23  28  29  30  31  32 0
 6-311+G(2d,p)
 ****
 33  34 0
 6-311+G(2d,p)
 ****
 1  2  14  15  16  17  18  19  20  21  22  24  25  26  27 0
 3-21G
 ****
 35  36  37  38  39  40  41  42  43  44  45 0
 3-21G
 ****


