%nproc=1
%NoSave
%Mem=1900MB
#P OB98/GEN NMR

erre ene a

0 1
  C     -206.109    -694.976    -280.668
  O     -205.563    -695.815    -279.667
  H     -205.372    -694.859    -281.467
  H     -206.333    -693.991    -280.249
  H     -207.019    -695.420    -281.084
  P     -206.541    -696.257    -278.480
  C     -205.766    -698.766    -278.362
  O     -205.847    -697.494    -277.726
  C     -205.098    -699.775    -277.429
  O     -203.665    -699.598    -277.408
  C     -205.499    -699.628    -275.970
  O     -206.824    -700.047    -275.727
  C     -204.442    -700.499    -275.304
  O     -204.769    -701.890    -275.420
  C     -203.191    -700.158    -276.153
  N     -202.284    -699.249    -275.465
  C     -201.097    -698.940    -276.145
  O     -200.874    -699.423    -277.253
  N     -200.184    -698.119    -275.530
  C     -200.439    -697.626    -274.361
  N     -199.492    -696.828    -273.803
  C     -201.691    -697.903    -273.622
  C     -202.554    -698.716    -274.223
  O     -207.750    -696.955    -279.262
  O     -206.955    -695.159    -277.552
  H     -204.607    -702.132    -276.355
  H     -207.465    -697.655    -279.872
  H     -201.865    -697.462    -272.649
  H     -203.496    -698.970    -273.749
  H     -202.634    -701.069    -276.401
  H     -204.344    -700.280    -274.237
  H     -205.348    -698.595    -275.638
  H     -205.313    -700.782    -277.809
  H     -198.636    -696.676    -274.331
  H     -205.221    -698.694    -279.308
  H     -199.565    -696.416    -272.882
  H     -206.789    -699.084    -278.594
  P     -207.959    -698.984    -275.334
  C     -209.637    -700.060    -276.968
  O     -209.370    -699.704    -275.617
  O     -207.815    -697.640    -275.969
  O     -207.901    -698.962    -273.733
  H     -208.081    -699.819    -273.309
  H     -210.597    -700.528    -277.030
  H     -208.886    -700.740    -277.313
  H     -209.629    -699.180    -277.577

 6  7  8  9  10  11  12  13  14  15  16  26  30  31  32  33  35 0
 6-311+G(2d,p)
 ****
 37  38 0
 6-311+G(2d,p)
 ****
 1  2  3  4  5  17  18  19  20  21  22  23  24  25 0
 3-21G
 ****
 27  28  29  34  36  39  40  41  42  43  44  45  46 0
 3-21G
 ****


