%nproc=1
%NoSave
%Mem=1900MB
#P OB98/GEN NMR

erre ene a

0 1
  C       97.801    -225.587    -236.710
  O       98.238    -226.852    -237.166
  H       98.018    -224.842    -237.479
  H       98.342    -225.318    -235.798
  H       96.724    -225.593    -236.518
  P       97.725    -228.135    -236.345
  C      100.131    -228.881    -235.718
  O       98.859    -228.458    -235.253
  C      100.582    -230.129    -234.965
  O      100.873    -229.810    -233.587
  C       99.550    -231.252    -234.938
  O       99.600    -232.036    -236.123
  C      100.033    -232.048    -233.738
  O      101.184    -232.836    -234.107
  C      100.453    -230.936    -232.766
  N       98.281    -231.642    -228.237
  C       99.306    -232.340    -228.846
  N       99.818    -233.379    -228.154
  N       99.783    -232.051    -230.031
  C       99.156    -231.003    -230.615
  C       98.126    -230.236    -230.117
  C       97.621    -230.558    -228.801
  O       96.720    -229.963    -228.213
  N       97.749    -229.257    -230.999
  C       98.536    -229.446    -232.040
  N       99.406    -230.495    -231.860
  O       97.876    -229.320    -237.414
  O       96.329    -228.042    -235.829
  H      100.855    -233.618    -234.588
  H       96.995    -229.530    -237.777
  H       97.945    -231.914    -227.329
  H       98.522    -228.850    -232.943
  H      101.309    -231.225    -232.145
  H       99.280    -232.744    -233.361
  H       99.484    -233.670    -227.249
  H       98.540    -230.870    -234.744
  H      100.573    -233.903    -228.580
  H      101.518    -230.477    -235.423
  H      100.857    -228.076    -235.555
  H      100.068    -229.093    -236.791
  P       98.232    -232.669    -236.672
  C       98.501    -234.813    -235.237
  O       97.698    -233.682    -235.545
  O       98.736    -233.640    -237.839
  O       97.233    -231.684    -237.178
  H       98.455    -233.292    -238.707
  H       98.023    -235.393    -234.475
  H       99.459    -234.486    -234.889
  H       98.626    -235.412    -236.115

 6  7  8  9  10  11  12  13  14  15  26  29  33  34 0
 6-311+G(2d,p)
 ****
 36  38  39  40  41 0
 6-311+G(2d,p)
 ****
 1  2  3  4  5  16  17  18  19  20  21  22  23  24  25 0
 3-21G
 ****
 27  28  30  31  32  35  37  42  43  44  45  46  47 0
 3-21G
 ****
 48  49 0
 3-21G
 ****


