%nproc=1
%NoSave
%Mem=1900MB
#P OB98/GEN NMR

erre ene a

0 1
  C     -176.809     141.943     300.367
  O     -177.873     142.699     300.908
  H     -176.306     142.542     299.604
  H     -177.181     141.026     299.902
  H     -176.087     141.697     301.149
  P     -178.877     141.993     301.938
  C     -181.175     142.893     301.205
  O     -180.110     143.002     302.137
  C     -181.782     144.265     300.910
  O     -182.512     144.710     302.085
  C     -180.740     145.336     300.564
  O     -181.287     146.188     299.556
  C     -180.588     146.086     301.871
  O     -180.105     147.400     301.663
  C     -181.997     146.001     302.464
  N     -181.974     146.178     303.915
  C     -181.483     147.400     304.388
  O     -181.112     148.267     303.596
  N     -181.361     147.587     305.740
  C     -181.648     146.620     306.553
  N     -181.467     146.859     307.880
  C     -182.143     145.304     306.099
  C     -182.283     145.155     304.783
  O     -178.271     141.490     303.206
  O     -179.519     140.801     301.082
  H     -180.008     147.851     302.529
  H     -178.989     139.989     301.189
  H     -182.364     144.530     306.816
  H     -182.629     144.219     304.355
  H     -182.652     146.767     302.028
  H     -179.873     145.563     302.517
  H     -179.790     144.913     300.221
  H     -182.517     144.157     300.104
  H     -181.102     147.767     308.143
  H     -181.940     142.241     301.643
  H     -181.617     146.171     308.603
  H     -180.813     142.438     300.277
  P     -180.910     145.973     298.011
  C     -179.837     148.274     297.685
  O     -180.885     147.401     297.273
  O     -181.711     144.926     297.309
  O     -179.359     145.556     298.052
  H     -179.165     144.968     297.295
  H     -179.904     149.193     297.141
  H     -178.891     147.812     297.491
  H     -179.929     148.472     298.732

 6  7  8  9  10  11  12  13  14  15  16  26  30  31  32  33  35 0
 6-311+G(2d,p)
 ****
 37  38 0
 6-311+G(2d,p)
 ****
 1  2  3  4  5  17  18  19  20  21  22  23  24  25 0
 3-21G
 ****
 27  28  29  34  36  39  40  41  42  43  44  45  46 0
 3-21G
 ****


