%nproc=1
%NoSave
%Mem=1900MB
#P OB98/GEN NMR

erre ene a

0 1
  C      305.141     392.442      69.922
  O      303.934     391.902      70.475
  P      303.920     390.508      71.276
  C      303.008     388.910      69.483
  O      304.139     389.274      70.262
  C      302.518     387.484      69.752
  O      303.541     386.506      69.407
  C      302.128     387.195      71.212
  O      301.081     386.217      71.151
  C      303.395     386.590      71.775
  O      303.191     385.852      72.973
  C      303.849     385.748      70.589
  N      307.424     382.310      69.278
  C      306.130     382.445      68.919
  N      305.252     383.402      69.286
  C      305.840     384.321      70.062
  C      307.155     384.330      70.504
  C      307.968     383.257      70.088
  N      309.276     383.094      70.488
  N      307.394     385.421      71.324
  C      306.238     386.049      71.379
  N      305.269     385.429      70.633
  O      302.749     390.343      72.190
  O      305.277     390.529      72.126
  H      302.392     385.302      72.858
  H      305.086     390.243      73.042
  H      305.745     381.668      68.265
  H      306.039     386.941      71.960
  H      303.298     384.803      70.534
  H      304.111     387.396      72.001
  H      301.798     388.088      71.756
  H      301.664     387.289      69.089
  H      303.268     389.007      68.420
  H      309.744     382.243      70.216
  H      309.653     383.708      71.190
  H      302.196     389.621      69.691
  P      299.569     386.573      71.535
  C      300.035     385.883      73.954
  O      299.552     386.910      73.100
  O      298.556     385.560      71.096
  O      299.302     387.995      70.847
  H      298.347     388.150      70.765
  H      299.276     385.100      74.058
  H      300.244     386.314      74.946
  H      300.955     385.451      73.561
  H      304.926     393.370      69.434
  H      305.548     391.752      69.213
  H      305.850     392.607      70.706

 3  4  5  6  7  8  9  10  11  12  22  25  29  30  31  32 0
 6-311+G(2d,p)
 ****
 33  36  37 0
 6-311+G(2d,p)
 ****
 1  2  13  14  15  16  17  18  19  20  21  23  24  26 0
 3-21G
 ****
 27  28  34  35  38  39  40  41  42  43  44  45  46  47  48 0
 3-21G
 ****


