%nproc=1
%NoSave
%Mem=1900MB
#P OB98/GEN NMR

erre ene a

0 1
  C     -472.808    -130.432    -294.071
  O     -472.051    -130.257    -292.865
  P     -472.871    -129.933    -291.524
  C     -472.361    -132.320    -290.574
  O     -473.336    -131.358    -290.946
  C     -472.962    -133.729    -290.642
  O     -473.389    -134.032    -291.998
  C     -471.996    -134.838    -290.258
  O     -471.787    -134.886    -288.860
  C     -472.710    -136.053    -290.843
  O     -473.757    -136.490    -289.961
  C     -473.315    -135.472    -292.139
  N     -472.581    -135.855    -293.336
  C     -472.752    -137.170    -293.766
  O     -473.454    -137.980    -293.166
  N     -472.068    -137.523    -294.894
  C     -471.225    -136.720    -295.605
  O     -470.644    -137.089    -296.618
  C     -471.044    -135.356    -295.081
  C     -471.723    -134.993    -293.988
  O     -474.208    -129.293    -292.126
  O     -472.118    -129.057    -290.575
  H     -474.478    -129.697    -292.963
  H     -474.213    -137.223    -290.427
  H     -472.187    -138.468    -295.226
  H     -470.363    -134.697    -295.603
  H     -471.597    -133.992    -293.582
  H     -474.352    -135.820    -292.256
  H     -472.034    -136.898    -290.994
  H     -471.036    -134.689    -290.772
  H     -473.847    -133.747    -289.991
  H     -472.014    -132.130    -289.558
  H     -471.495    -132.230    -291.241
  P     -470.646    -133.925    -288.261
  C     -472.324    -132.220    -287.205
  O     -471.288    -132.471    -288.132
  O     -469.658    -133.800    -289.515
  O     -470.001    -134.460    -287.016
  H     -470.119    -133.658    -290.353
  H     -472.384    -131.145    -287.018
  H     -472.132    -132.733    -286.253
  H     -473.280    -132.565    -287.616
  H     -472.143    -130.641    -294.883
  H     -473.356    -129.537    -294.281
  H     -473.490    -131.248    -293.949

 3  4  5  6  7  8  9  10  11  12  13  24  28  29  30  31  32 0
 6-311+G(2d,p)
 ****
 33  34 0
 6-311+G(2d,p)
 ****
 1  2  14  15  16  17  18  19  20  21  22  23  25  26  27 0
 3-21G
 ****
 35  36  37  38  39  40  41  42  43  44  45 0
 3-21G
 ****


