%nproc=1
%NoSave
%Mem=1900MB
#P OB98/GEN NMR

erre ene a

0 1
  C     1318.346    -772.785     429.730
  O     1319.014    -773.675     430.606
  P     1319.348    -775.213     430.221
  C     1321.961    -775.220     430.071
  O     1320.703    -775.222     429.404
  C     1322.573    -773.788     430.216
  O     1321.721    -772.991     431.084
  C     1323.922    -773.853     430.888
  O     1325.083    -774.143     430.124
  C     1324.019    -772.558     431.718
  O     1324.694    -771.512     430.990
  C     1322.514    -772.194     431.944
  N     1323.507    -771.141     436.849
  C     1324.254    -770.880     435.757
  N     1325.419    -770.246     435.944
  N     1323.885    -771.143     434.507
  C     1322.697    -771.866     434.440
  C     1321.888    -772.213     435.470
  C     1322.272    -771.815     436.854
  O     1321.621    -772.028     437.837
  N     1320.792    -772.918     435.033
  C     1320.954    -772.989     433.738
  N     1322.161    -772.345     433.328
  O     1318.191    -776.006     429.686
  O     1319.764    -775.853     431.661
  H     1325.591    -771.816     430.799
  H     1319.441    -776.801     431.623
  H     1323.817    -770.873     437.780
  H     1320.281    -773.492     433.055
  H     1322.333    -771.151     431.684
  H     1324.589    -772.717     432.635
  H     1325.808    -770.098     436.886
  H     1323.856    -774.668     431.665
  H     1326.069    -770.241     435.150
  H     1322.573    -773.254     429.252
  H     1322.643    -775.852     429.505
  H     1321.868    -775.692     431.049
  P     1325.813    -775.575     430.008
  C     1325.303    -776.168     427.550
  O     1325.001    -776.422     428.902
  O     1325.450    -776.316     431.378
  O     1327.310    -775.513     429.786
  H     1326.043    -777.081     431.516
  H     1324.505    -776.553     426.925
  H     1326.241    -776.686     427.286
  H     1325.410    -775.067     427.352
  H     1318.240    -771.831     430.203
  H     1317.378    -773.176     429.494
  H     1318.915    -772.676     428.830

 3  4  5  6  7  8  9  10  11  12  23  26  30  31 0
 6-311+G(2d,p)
 ****
 33  35  36  37  38 0
 6-311+G(2d,p)
 ****
 1  2  13  14  15  16  17  18  19  20  21  22  24  25 0
 3-21G
 ****
 27  28  29  32  34  39  40  41  42  43  44  45  46  47  48  49 0
 3-21G
 ****


