%nproc=1
%NoSave
%Mem=1900MB
#P OB98/GEN NMR

erre ene a

0 1
  C     -279.357     190.214    -146.288
  O     -278.192     190.340    -145.489
  P     -276.998     191.267    -146.018
  C     -277.461     193.329    -144.497
  O     -277.443     192.798    -145.813
  C     -276.329     194.345    -144.311
  O     -276.559     195.485    -145.195
  C     -276.209     194.893    -142.883
  O     -274.814     195.137    -142.630
  C     -276.947     196.219    -142.975
  O     -276.610     197.120    -141.932
  C     -276.517     196.670    -144.373
  N     -277.359     197.734    -144.915
  C     -277.122     199.032    -144.474
  O     -276.243     199.329    -143.657
  N     -277.965     199.998    -144.951
  C     -279.059     199.782    -145.738
  O     -279.851     200.675    -146.035
  C     -279.272     198.395    -146.172
  C     -278.425     197.446    -145.751
  O     -277.048     191.061    -147.605
  O     -275.655     190.932    -145.451
  H     -276.879     198.013    -142.215
  H     -276.365     190.428    -147.888
  H     -277.799     200.943    -144.648
  H     -280.120     198.194    -146.817
  H     -278.562     196.408    -146.043
  H     -275.471     197.013    -144.357
  H     -278.029     196.036    -142.928
  H     -276.625     194.225    -142.118
  H     -275.390     193.875    -144.619
  H     -277.336     192.516    -143.779
  H     -278.434     193.798    -144.303
  P     -274.328     195.179    -141.098
  C     -272.789     193.067    -141.184
  O     -273.959     193.677    -140.682
  O     -275.717     195.461    -140.349
  O     -273.283     196.220    -140.829
  H     -276.448     194.928    -140.705
  H     -271.973     193.786    -141.302
  H     -273.005     192.606    -142.150
  H     -272.467     192.285    -140.485
  H     -280.055     189.566    -145.801
  H     -279.094     189.803    -147.240
  H     -279.801     191.178    -146.426

 3  4  5  6  7  8  9  10  11  12  13  23  28  29  30  31  32 0
 6-311+G(2d,p)
 ****
 33  34 0
 6-311+G(2d,p)
 ****
 1  2  14  15  16  17  18  19  20  21  22  24  25  26 0
 3-21G
 ****
 27  35  36  37  38  39  40  41  42  43  44  45 0
 3-21G
 ****


