%nproc=1
%NoSave
%Mem=1900MB
#P OB98/GEN NMR

erre ene a

0 1
  C       -9.988      31.475      19.822
  O       -8.714      32.068      19.965
  H       -9.859      30.421      19.567
  H      -10.546      31.965      19.019
  H      -10.544      31.547      20.759
  P       -8.677      33.639      20.283
  C       -9.234      35.049      22.393
  O       -9.451      33.844      21.673
  C      -10.573      35.702      22.714
  O      -11.261      36.043      21.489
  C      -11.534      34.805      23.482
  O      -11.218      34.734      24.861
  C      -12.856      35.504      23.215
  O      -13.070      36.592      24.128
  C      -12.674      36.019      21.771
  N      -13.412      35.215      20.803
  C      -14.509      35.835      20.213
  O      -14.853      36.987      20.475
  N      -15.226      35.072      19.333
  C      -14.981      33.767      19.022
  O      -15.706      33.117      18.280
  C      -13.801      33.167      19.666
  C      -13.087      33.903      20.521
  O       -9.678      34.253      19.195
  O       -7.325      34.265      20.222
  H       -9.170      34.665      18.472
  H      -13.862      37.066      23.806
  H      -16.030      35.501      18.903
  H      -13.574      32.133      19.436
  H      -12.224      33.476      21.023
  H      -13.029      37.055      21.688
  H      -13.700      34.824      23.331
  H      -11.564      33.807      23.029
  H      -10.383      36.630      23.271
  H       -8.638      35.736      21.783
  H       -8.680      34.822      23.309
  P      -11.711      33.457      25.695
  C      -10.950      30.943      25.733
  O      -10.983      32.182      25.050
  O      -13.226      33.332      25.202
  O      -11.537      33.599      27.168
  H      -13.343      33.571      24.267
  H      -10.422      30.224      25.142
  H      -11.950      30.602      25.901
  H      -10.453      31.067      26.672

 6  7  8  9  10  11  12  13  14  15  16  27  31  32  33  34  35 0
 6-311+G(2d,p)
 ****
 36  37 0
 6-311+G(2d,p)
 ****
 1  2  3  4  5  17  18  19  20  21  22  23  24  25 0
 3-21G
 ****
 26  28  29  30  38  39  40  41  42  43  44  45 0
 3-21G
 ****


