%nproc=1
%NoSave
%Mem=1900MB
#P OB98/GEN NMR

erre ene a

0 1
  C     -482.210    -583.103    -619.257
  O     -482.204    -583.218    -617.849
  H     -481.348    -582.504    -619.564
  H     -483.125    -582.606    -619.596
  H     -482.134    -584.092    -619.717
  P     -483.460    -583.976    -617.190
  C     -485.978    -583.335    -616.997
  O     -484.684    -582.967    -617.443
  C     -486.652    -582.150    -616.301
  O     -486.791    -581.038    -617.221
  C     -488.055    -582.427    -615.792
  O     -488.087    -583.172    -614.582
  C     -488.548    -581.007    -615.595
  O     -487.947    -580.449    -614.409
  C     -488.006    -580.323    -616.868
  N     -488.960    -580.356    -617.983
  C     -490.063    -579.491    -617.891
  O     -490.203    -578.764    -616.916
  N     -490.999    -579.504    -618.896
  C     -490.840    -580.291    -619.921
  N     -491.799    -580.260    -620.872
  C     -489.695    -581.207    -620.060
  C     -488.804    -581.180    -619.074
  O     -483.196    -583.825    -615.617
  O     -483.696    -585.379    -617.646
  H     -486.988    -580.398    -614.589
  H     -483.990    -584.133    -615.115
  H     -489.610    -581.848    -620.928
  H     -487.928    -581.829    -619.115
  H     -487.730    -579.285    -616.671
  H     -489.635    -580.937    -615.466
  H     -488.677    -582.913    -616.561
  H     -485.990    -581.823    -615.485
  H     -492.609    -579.672    -620.722
  H     -485.881    -584.166    -616.291
  H     -491.846    -580.941    -621.630
  H     -486.593    -583.651    -617.843
  P     -489.523    -583.666    -614.058
  C     -491.856    -582.563    -613.797
  O     -490.464    -582.374    -614.001
  O     -489.242    -583.989    -612.514
  O     -490.089    -584.843    -614.785
  H     -489.791    -584.752    -612.216
  H     -492.347    -581.612    -613.783
  H     -492.015    -583.060    -612.863
  H     -492.255    -583.159    -614.591

 6  7  8  9  10  11  12  13  14  15  16  26  30  31  32  33  35 0
 6-311+G(2d,p)
 ****
 37  38 0
 6-311+G(2d,p)
 ****
 1  2  3  4  5  17  18  19  20  21  22  23  24  25 0
 3-21G
 ****
 27  28  29  34  36  39  40  41  42  43  44  45  46 0
 3-21G
 ****


