%nproc=1
%NoSave
%Mem=1900MB
#P OB98/GEN NMR

erre ene a

0 1
  C     -315.555     -63.998      57.984
  O     -315.471     -65.266      58.599
  H     -314.837     -63.328      58.466
  H     -316.561     -63.589      58.120
  H     -315.322     -64.056      56.919
  P     -316.144     -66.524      57.870
  C     -317.808     -67.195      59.731
  O     -317.646     -66.648      58.427
  C     -319.172     -67.887      59.872
  O     -319.208     -68.621      61.120
  C     -320.292     -66.851      59.933
  O     -321.527     -67.358      59.426
  C     -320.440     -66.592      61.423
  O     -321.711     -66.052      61.779
  C     -320.171     -67.988      61.989
  N     -321.133     -69.016      66.885
  C     -321.986     -69.060      65.803
  N     -323.274     -69.400      66.059
  N     -321.619     -68.779      64.580
  C     -320.323     -68.381      64.481
  C     -319.391     -68.279      65.490
  C     -319.801     -68.631      66.831
  O     -319.090     -68.596      67.832
  N     -318.186     -67.824      65.005
  C     -318.390     -67.650      63.718
  N     -319.670     -67.987      63.346
  O     -315.417     -67.786      58.542
  O     -316.020     -66.549      56.378
  H     -322.396     -66.619      61.376
  H     -315.445     -68.554      57.943
  H     -321.468     -69.260      67.807
  H     -317.650     -67.287      63.011
  H     -321.091     -68.594      61.974
  H     -319.681     -65.857      61.726
  H     -323.641     -69.454      66.995
  H     -320.037     -65.934      59.390
  H     -323.962     -69.153      65.342
  H     -319.309     -68.618      59.068
  H     -317.734     -66.364      60.443
  H     -316.994     -67.892      59.948
  P     -322.004     -66.848      57.982
  C     -323.209     -64.630      58.697
  O     -322.120     -65.248      58.037
  O     -323.515     -67.350      57.883
  O     -321.163     -67.362      56.855
  H     -323.580     -68.118      57.282
  H     -323.112     -63.567      58.627
  H     -323.213     -64.921      59.727
  H     -324.125     -64.935      58.236

 6  7  8  9  10  11  12  13  14  15  26  29  33  34 0
 6-311+G(2d,p)
 ****
 36  38  39  40  41 0
 6-311+G(2d,p)
 ****
 1  2  3  4  5  16  17  18  19  20  21  22  23  24  25 0
 3-21G
 ****
 27  28  30  31  32  35  37  42  43  44  45  46  47 0
 3-21G
 ****
 48  49 0
 3-21G
 ****


