%nproc=1
%NoSave
%Mem=1900MB
#P OB98/GEN NMR

erre ene a

0 1
  C       21.630      39.506      55.606
  O       20.514      38.637      55.523
  P       20.597      37.271      54.698
  C       21.177      36.812      52.179
  O       20.532      37.616      53.142
  C       20.178      36.474      51.065
  O       19.529      37.673      50.597
  C       20.867      35.814      49.874
  O       20.796      34.401      49.974
  C       20.099      36.377      48.694
  O       18.873      35.648      48.497
  C       19.796      37.815      49.176
  N       20.845      38.840      49.009
  C       20.976      39.497      47.790
  O       20.243      39.301      46.826
  N       22.016      40.389      47.705
  C       22.879      40.706      48.713
  O       23.934      41.309      48.558
  C       22.522      40.189      50.037
  C       21.553      39.277      50.119
  O       19.179      36.589      54.985
  O       21.734      36.372      55.057
  H       18.416      36.055      47.740
  H       19.256      35.917      55.687
  H       22.203      40.766      46.781
  H       23.093      40.525      50.891
  H       21.296      38.851      51.086
  H       18.888      38.204      48.704
  H       20.665      36.274      47.770
  H       21.910      36.150      49.806
  H       19.404      35.810      51.473
  H       21.554      35.896      52.646
  H       22.040      37.343      51.764
  P       21.996      33.507      49.407
  C       23.161      33.280      47.136
  O       22.093      33.871      47.848
  O       21.919      32.050      49.722
  O       23.296      34.187      50.052
  H       23.570      33.689      50.849
  H       23.013      33.457      46.069
  H       23.194      32.201      47.317
  H       24.106      33.736      47.442
  H       21.374      40.359      56.199
  H       21.908      39.825      54.623
  H       22.451      38.990      56.059

 3  4  5  6  7  8  9  10  11  12  13  23  28  29  30  31  32 0
 6-311+G(2d,p)
 ****
 33  34 0
 6-311+G(2d,p)
 ****
 1  2  14  15  16  17  18  19  20  21  22  24  25  26  27 0
 3-21G
 ****
 35  36  37  38  39  40  41  42  43  44  45 0
 3-21G
 ****


