%nproc=1
%NoSave
%Mem=1900MB
#P OB98/GEN NMR

erre ene a

0 1
  C     -211.100     268.925     790.778
  O     -210.954     268.178     789.579
  P     -211.180     268.946     788.190
  C     -213.763     268.861     787.897
  O     -212.634     269.624     788.283
  C     -214.655     269.664     786.957
  O     -215.209     270.813     787.635
  C     -213.929     270.236     785.742
  O     -213.773     269.276     784.708
  C     -214.900     271.327     785.311
  O     -215.987     270.751     784.559
  C     -215.402     271.855     786.661
  N     -214.654     276.780     785.704
  C     -215.592     275.904     785.182
  N     -216.412     276.400     784.230
  N     -215.724     274.661     785.563
  C     -214.829     274.301     786.519
  C     -213.855     275.072     787.122
  C     -213.722     276.440     786.677
  O     -212.876     277.246     787.064
  N     -213.156     274.354     788.049
  C     -213.699     273.154     788.029
  N     -214.694     273.060     787.079
  O     -211.393     267.763     787.138
  O     -210.067     269.863     787.793
  H     -216.404     270.079     785.134
  H     -211.268     268.097     786.227
  H     -214.591     277.722     785.373
  H     -213.405     272.328     788.651
  H     -216.471     272.094     786.630
  H     -214.439     272.078     784.668
  H     -216.320     277.336     783.846
  H     -212.973     270.690     786.024
  H     -217.069     275.772     783.783
  H     -215.488     269.023     786.642
  H     -214.327     268.576     788.785
  H     -213.428     267.940     787.404
  P     -212.352     269.253     783.951
  C     -212.431     271.381     782.460
  O     -212.006     270.794     783.669
  O     -212.727     268.672     782.506
  O     -211.302     268.452     784.639
  H     -211.956     268.234     782.113
  H     -212.351     272.464     782.538
  H     -213.479     271.121     782.235
  H     -211.791     271.039     781.632
  H     -210.922     268.288     791.619
  H     -212.093     269.320     790.834
  H     -210.395     269.730     790.785

 3  4  5  6  7  8  9  10  11  12  23  26  30  31 0
 6-311+G(2d,p)
 ****
 33  35  36  37  38 0
 6-311+G(2d,p)
 ****
 1  2  13  14  15  16  17  18  19  20  21  22  24  25 0
 3-21G
 ****
 27  28  29  32  34  39  40  41  42  43  44  45  46  47  48  49 0
 3-21G
 ****


