%nproc=1
%NoSave
%Mem=1900MB
#P OB98/GEN NMR

erre ene a

0 1
  C     -117.913     273.787    -219.689
  O     -117.386     275.097    -219.767
  H     -117.170     273.084    -220.080
  H     -118.818     273.712    -220.296
  H     -118.136     273.516    -218.652
  P     -118.153     276.289    -219.019
  C     -115.984     277.452    -218.234
  O     -117.162     277.554    -219.026
  C     -114.883     278.367    -218.785
  O     -114.426     277.822    -220.067
  C     -115.337     279.819    -219.036
  O     -114.204     280.668    -218.808
  C     -115.687     279.763    -220.516
  O     -115.826     281.044    -221.069
  C     -114.530     278.895    -221.024
  N     -114.736     278.383    -222.374
  C     -114.058     279.019    -223.410
  O     -113.288     279.967    -223.247
  N     -114.303     278.535    -224.668
  C     -115.145     277.507    -224.981
  O     -115.308     277.101    -226.124
  C     -115.853     276.893    -223.846
  C     -115.623     277.351    -222.615
  O     -118.732     275.952    -217.686
  O     -119.291     276.721    -220.063
  H     -120.136     276.296    -219.819
  H     -116.031     280.988    -222.027
  H     -113.818     278.988    -225.432
  H     -116.544     276.087    -224.067
  H     -116.129     276.922    -221.755
  H     -113.586     279.449    -220.990
  H     -116.645     279.248    -220.659
  H     -116.164     280.127    -218.392
  H     -114.023     278.334    -218.105
  H     -115.652     276.408    -218.252
  H     -116.222     277.734    -217.201
  P     -114.207     281.884    -217.756
  C     -112.030     281.228    -216.536
  O     -112.696     282.213    -217.314
  O     -115.129     281.667    -216.596
  O     -114.653     283.173    -218.593
  H     -115.200     283.753    -218.028
  H     -111.040     281.563    -216.308
  H     -111.979     280.313    -217.088
  H     -112.570     281.067    -215.627

 6  7  8  9  10  11  12  13  14  15  16  27  31  32  33  34  35 0
 6-311+G(2d,p)
 ****
 36  37 0
 6-311+G(2d,p)
 ****
 1  2  3  4  5  17  18  19  20  21  22  23  24  25 0
 3-21G
 ****
 26  28  29  30  38  39  40  41  42  43  44  45 0
 3-21G
 ****


