%nproc=1
%NoSave
%Mem=1900MB
#P OB98/GEN NMR

erre ene a

0 1
  C      522.065     114.679     636.381
  O      520.920     115.145     637.056
  P      519.497     114.859     636.362
  C      518.227     115.832     638.438
  O      518.449     115.880     637.029
  C      518.334     117.241     639.005
  O      517.387     118.128     638.379
  C      518.056     117.343     640.508
  O      519.231     116.970     641.243
  C      517.671     118.795     640.669
  O      518.830     119.650     640.729
  C      516.865     119.057     639.378
  N      512.609     121.076     641.250
  C      513.952     121.459     641.429
  N      514.163     122.556     642.186
  N      514.974     120.803     640.914
  C      514.603     119.726     640.191
  C      513.317     119.240     639.957
  C      512.214     120.005     640.499
  O      511.026     119.755     640.273
  N      513.342     118.107     639.207
  C      514.647     117.894     638.946
  N      515.429     118.875     639.519
  O      519.072     113.436     636.948
  O      519.512     114.889     634.856
  H      518.537     120.572     640.807
  H      519.287     112.718     636.307
  H      511.881     121.630     641.655
  H      515.040     117.098     638.372
  H      517.020     120.068     639.000
  H      517.100     118.985     641.594
  H      513.455     123.099     642.615
  H      517.227     116.684     640.796
  H      515.122     122.843     642.339
  H      519.360     117.642     638.785
  H      519.007     115.200     638.896
  H      517.250     115.415     638.639
  P      519.169     115.588     642.061
  C      521.635     115.010     641.487
  O      520.673     115.204     642.496
  O      518.810     114.501     640.951
  O      518.170     115.559     643.173
  H      518.227     113.797     641.323
  H      522.631     115.295     641.859
  H      521.404     115.597     640.559
  H      521.661     113.949     641.206
  H      522.939     114.932     636.944
  H      522.119     115.135     635.414
  H      522.007     113.616     636.271

 3  4  5  6  7  8  9  10  11  12  23  26  30  31 0
 6-311+G(2d,p)
 ****
 33  35  36  37  38 0
 6-311+G(2d,p)
 ****
 1  2  13  14  15  16  17  18  19  20  21  22  24  25 0
 3-21G
 ****
 27  28  29  32  34  39  40  41  42  43  44  45  46  47  48  49 0
 3-21G
 ****


