%nproc=1
%NoSave
%Mem=1900MB
#P OB98/GEN NMR

erre ene a

0 1
  C     -634.460    -756.742    -899.628
  O     -634.435    -756.751    -898.188
  P     -633.415    -757.728    -897.418
  C     -631.923    -756.150    -895.958
  O     -632.050    -756.938    -897.148
  C     -631.702    -754.678    -896.318
  O     -632.874    -754.129    -896.978
  C     -631.449    -753.778    -895.138
  O     -630.128    -753.901    -894.638
  C     -631.741    -752.400    -895.738
  O     -630.596    -751.889    -896.448
  C     -632.887    -752.714    -896.698
  N     -634.190    -752.292    -896.198
  C     -634.876    -751.355    -896.968
  O     -634.409    -750.838    -897.988
  N     -636.111    -750.978    -896.488
  C     -636.688    -751.403    -895.328
  O     -637.790    -751.030    -894.948
  C     -635.881    -752.351    -894.528
  C     -634.697    -752.740    -894.978
  O     -632.990    -758.743    -898.588
  O     -633.995    -758.473    -896.258
  H     -630.858    -751.020    -896.808
  H     -632.743    -759.598    -898.198
  H     -636.631    -750.326    -897.048
  H     -636.294    -752.692    -893.588
  H     -634.090    -753.425    -894.408
  H     -632.717    -752.231    -897.668
  H     -632.001    -751.660    -894.978
  H     -632.186    -753.983    -894.358
  H     -630.859    -754.623    -897.038
  H     -631.062    -756.511    -895.398
  H     -632.818    -756.270    -895.348
  P     -629.901    -754.946    -893.438
  C     -627.510    -755.938    -893.778
  O     -628.899    -756.054    -894.018
  O     -631.329    -755.670    -893.398
  O     -629.504    -754.292    -892.148
  H     -631.738    -755.735    -894.268
  H     -627.305    -755.488    -892.798
  H     -627.056    -755.343    -894.578
  H     -627.079    -756.939    -893.808
  H     -635.192    -756.039    -899.968
  H     -634.710    -757.719    -899.987
  H     -633.497    -756.462    -900.000

 3  4  5  6  7  8  9  10  11  12  13  23  28  29  30  31  32 0
 6-311+G(2d,p)
 ****
 33  34 0
 6-311+G(2d,p)
 ****
 1  2  14  15  16  17  18  19  20  21  22  24  25  26 0
 3-21G
 ****
 27  35  36  37  38  39  40  41  42  43  44  45 0
 3-21G
 ****


