%nproc=1
%NoSave
%Mem=1900MB
#P OB98/GEN NMR

erre ene a

0 1
  C      153.542     330.619     -11.996
  O      154.021     331.804     -12.617
  P      153.514     332.111     -14.110
  C      151.852     333.976     -13.400
  O      152.018     332.674     -13.952
  C      151.844     335.031     -14.505
  O      150.744     334.788     -15.409
  C      151.673     336.457     -14.019
  O      152.889     337.026     -13.564
  C      151.210     337.144     -15.295
  O      152.346     337.409     -16.141
  C      150.312     336.078     -15.930
  N      146.058     338.580     -17.277
  C      147.327     338.664     -17.721
  N      148.407     337.971     -17.301
  C      148.086     337.145     -16.292
  C      146.833     336.984     -15.704
  C      145.781     337.742     -16.240
  N      144.482     337.631     -15.807
  N      146.895     336.050     -14.693
  C      148.145     335.648     -14.673
  N      148.905     336.275     -15.622
  O      153.295     330.649     -14.730
  O      154.443     332.940     -14.933
  H      152.801     336.567     -16.272
  H      153.345     330.689     -15.701
  H      147.496     339.368     -18.530
  H      148.549     334.904     -13.992
  H      150.409     336.038     -17.018
  H      150.725     338.106     -15.110
  H      150.876     336.531     -13.257
  H      152.774     334.926     -15.075
  H      152.672     334.182     -12.716
  H      143.755     338.070     -16.360
  H      144.250     336.870     -15.181
  H      150.911     334.008     -12.838
  P      152.812     337.970     -12.262
  C      154.473     336.727     -10.696
  O      153.129     337.004     -11.024
  O      151.244     338.268     -12.133
  O      153.629     339.207     -12.360
  H      151.100     339.110     -11.656
  H      154.516     336.325      -9.679
  H      155.085     337.625     -10.748
  H      154.874     335.974     -11.383
  H      153.956     330.539     -11.013
  H      153.835     329.769     -12.576
  H      152.475     330.656     -11.932

 3  4  5  6  7  8  9  10  11  12  22  25  29  30  31  32 0
 6-311+G(2d,p)
 ****
 33  36  37 0
 6-311+G(2d,p)
 ****
 1  2  13  14  15  16  17  18  19  20  21  23  24  26 0
 3-21G
 ****
 27  28  34  35  38  39  40  41  42  43  44  45  46  47  48 0
 3-21G
 ****


