%nproc=1
%NoSave
%Mem=1900MB
#P OB98/GEN NMR

erre ene a

0 1
  C      -19.758     451.681     649.047
  O      -20.089     453.022     649.353
  H      -20.561     451.251     648.444
  H      -19.654     451.099     649.966
  H      -18.824     451.640     648.475
  P      -19.020     453.845     650.220
  C      -18.330     456.349     650.401
  O      -19.101     455.369     649.717
  C      -18.347     457.654     649.608
  O      -17.454     457.554     648.479
  C      -19.705     458.003     649.021
  O      -20.589     458.560     649.985
  C      -19.309     458.979     647.928
  O      -19.136     460.307     648.443
  C      -17.974     458.416     647.435
  N      -16.725     458.340     642.489
  C      -16.366     459.159     643.495
  N      -16.733     459.108     644.797
  C      -17.537     458.054     645.012
  C      -17.983     457.126     644.085
  C      -17.545     457.296     642.761
  N      -17.932     456.473     641.736
  N      -18.832     456.216     644.685
  C      -18.884     456.570     645.955
  N      -18.115     457.677     646.197
  O      -17.613     453.329     649.648
  O      -19.120     453.659     651.696
  H      -18.938     460.878     647.672
  H      -17.243     452.658     650.253
  H      -15.703     459.977     643.222
  H      -19.469     456.075     646.718
  H      -17.226     459.201     647.262
  H      -20.079     459.029     647.153
  H      -20.159     457.110     648.558
  H      -17.985     458.466     650.257
  H      -17.300     456.001     650.499
  H      -18.752     456.497     651.401
  H      -17.628     456.695     640.799
  H      -18.630     455.766     641.909
  P      -22.158     458.323     649.781
  C      -24.180     459.326     651.097
  O      -22.887     458.741     651.148
  O      -22.301     456.721     649.757
  O      -22.730     458.952     648.555
  H      -23.014     456.466     649.129
  H      -24.514     459.541     652.091
  H      -24.861     458.645     650.631
  H      -24.139     460.233     650.531

 6  7  8  9  10  11  12  13  14  15  25  28  32  33  34  35 0
 6-311+G(2d,p)
 ****
 36  37  40 0
 6-311+G(2d,p)
 ****
 1  2  3  4  5  16  17  18  19  20  21  22  23  24 0
 3-21G
 ****
 26  27  29  30  31  38  39 41  42  43  44  45  46  47  48 0
 3-21G
 ****


