%nproc=1
%NoSave
%Mem=1900MB
#P OB98/GEN NMR

erre ene a

0 1
  C      909.948    -250.517    -536.574
  O      909.271    -249.356    -536.137
  H      910.888    -250.605    -536.024
  H      910.174    -250.426    -537.642
  H      909.344    -251.409    -536.395
  P      907.730    -249.206    -536.572
  C      906.451    -250.020    -534.465
  O      906.922    -250.337    -535.764
  C      904.923    -249.931    -534.462
  O      904.489    -248.804    -535.262
  C      904.219    -251.157    -535.029
  O      904.085    -252.177    -534.049
  C      902.865    -250.562    -535.392
  O      902.065    -250.403    -534.197
  C      903.258    -249.188    -535.948
  N      901.173    -249.898    -540.521
  C      900.643    -250.095    -539.262
  N      899.369    -250.553    -539.214
  N      901.292    -249.861    -538.147
  C      902.556    -249.433    -538.352
  C      903.209    -249.211    -539.538
  C      902.472    -249.449    -540.762
  O      902.901    -249.283    -541.904
  N      904.485    -248.774    -539.347
  C      904.623    -248.749    -538.033
  N      903.489    -249.152    -537.380
  O      907.738    -249.744    -538.080
  O      907.179    -247.824    -536.486
  H      901.779    -251.300    -533.929
  H      907.709    -248.978    -538.682
  H      900.642    -250.101    -541.346
  H      905.522    -248.460    -537.511
  H      902.505    -248.419    -535.720
  H      902.295    -251.203    -536.075
  H      898.828    -250.773    -540.030
  H      904.716    -251.526    -535.935
  H      898.961    -250.702    -538.301
  H      904.599    -249.736    -533.435
  H      906.870    -249.059    -534.150
  H      906.773    -250.799    -533.766
  P      904.232    -253.709    -534.521
  C      906.773    -254.056    -534.131
  O      905.730    -253.879    -535.086
  O      903.335    -253.755    -535.849
  O      903.790    -254.725    -533.527
  H      902.540    -254.304    -535.685
  H      907.709    -254.155    -534.640
  H      906.584    -254.938    -533.556
  H      906.809    -253.207    -533.481

 6  7  8  9  10  11  12  13  14  15  26  29  33  34 0
 6-311+G(2d,p)
 ****
 36  38  39  40  41 0
 6-311+G(2d,p)
 ****
 1  2  3  4  5  16  17  18  19  20  21  22  23  24  25 0
 3-21G
 ****
 27  28  30  31  32  35  37  42  43  44  45  46  47 0
 3-21G
 ****
 48  49 0
 3-21G
 ****


