%nproc=1
%NoSave
%Mem=1900MB
#P OB98/GEN NMR

erre ene a

0 1
  C      618.266    -124.919    -552.046
  O      618.588    -124.289    -553.279
  P      617.701    -123.006    -553.698
  C      618.623    -123.105    -556.138
  O      617.475    -123.126    -555.284
  C      618.282    -123.727    -557.494
  O      618.291    -125.165    -557.381
  C      616.911    -123.359    -558.021
  O      616.927    -122.056    -558.566
  C      616.678    -124.446    -559.061
  O      617.253    -124.102    -560.315
  C      617.427    -125.660    -558.432
  N      616.521    -126.682    -557.931
  C      615.765    -127.360    -558.908
  O      615.872    -127.061    -560.106
  N      614.870    -128.327    -558.485
  C      614.748    -128.584    -557.229
  N      613.849    -129.554    -556.869
  C      615.502    -127.874    -556.166
  C      616.357    -126.949    -556.583
  O      618.745    -121.789    -553.565
  O      616.474    -122.792    -552.873
  H      617.154    -124.881    -560.886
  H      618.277    -120.959    -553.377
  H      615.358    -128.129    -555.126
  H      616.956    -126.378    -555.888
  H      618.082    -126.136    -559.182
  H      615.610    -124.632    -559.225
  H      616.163    -123.427    -557.224
  H      619.076    -123.435    -558.204
  H      613.323    -130.000    -557.611
  H      619.434    -123.667    -555.667
  H      613.688    -129.837    -555.916
  H      618.952    -122.068    -556.251
  P      615.601    -121.161    -558.404
  C      616.693    -119.711    -560.221
  O      615.503    -120.328    -559.776
  O      616.073    -120.034    -557.368
  O      614.357    -121.861    -557.963
  H      615.312    -119.483    -557.101
  H      616.528    -119.323    -561.243
  H      617.503    -120.442    -560.261
  H      616.954    -118.876    -559.566
  H      618.923    -125.749    -551.887
  H      617.254    -125.265    -552.076
  H      618.379    -124.217    -551.247

 3  4  5  6  7  8  9  10  11  12  13  21  23  27  28  29  30  32 0
 6-311+G(2d,p)
 ****
 34  35 0
 6-311+G(2d,p)
 ****
 1  2  14  15  16  17  18  19  20  22  24  25  26 0
 3-21G
 ****
 31  33  36  37  38  39  40  41  42  43  44  45  46 0
 3-21G
 ****


