%nproc=1
%NoSave
%Mem=1900MB
#P OB98/GEN NMR

erre ene a

0 1
  C       83.019    1144.512    -897.140
  O       82.553    1145.788    -896.750
  H       83.620    1144.637    -898.060
  H       82.177    1143.868    -897.370
  H       83.649    1144.074    -896.370
  P       81.728    1145.851    -895.370
  C       83.482    1147.480    -894.320
  O       82.106    1147.259    -894.680
  C       83.752    1148.976    -894.090
  O       83.841    1149.655    -895.390
  C       82.636    1149.704    -893.300
  O       83.283    1150.701    -892.480
  C       81.832    1150.401    -894.380
  O       81.072    1151.497    -893.860
  C       82.965    1150.790    -895.370
  N       80.372    1154.263    -897.900
  C       80.765    1154.259    -896.570
  N       80.432    1155.304    -895.790
  N       81.459    1153.268    -896.050
  C       81.762    1152.273    -896.940
  C       81.383    1152.199    -898.280
  C       80.626    1153.277    -898.840
  O       80.230    1153.364    -900.000
  N       81.866    1151.028    -898.840
  C       82.498    1150.415    -897.830
  N       82.447    1151.127    -896.670
  O       82.479    1144.762    -894.450
  O       80.250    1145.566    -895.470
  H       80.578    1151.904    -894.620
  H       82.031    1143.898    -894.530
  H       79.845    1155.061    -898.240
  H       82.986    1149.433    -897.930
  H       83.526    1151.656    -895.000
  H       81.126    1149.703    -894.850
  H       79.966    1156.119    -896.150
  H       82.031    1149.048    -892.660
  H       80.758    1155.322    -894.840
  H       84.730    1149.083    -893.620
  H       84.112    1147.113    -895.160
  H       83.700    1146.904    -893.410
  P       82.430    1151.365    -891.290
  C       84.177    1150.569    -889.520
  O       83.427    1151.640    -890.050
  O       81.569    1150.118    -890.760
  O       81.533    1152.523    -891.700
  H       80.723    1150.425    -890.360
  H       84.781    1150.923    -888.710
  H       84.807    1150.162    -890.283
  H       83.512    1149.810    -889.164

 6  7  8  9  10  11  12  13  14  15  26  29  33  34 0
 6-311+G(2d,p)
 ****
 36  38  39  40  41 0
 6-311+G(2d,p)
 ****
 1  2  3  4  5  16  17  18  19  20  21  22  23  24  25 0
 3-21G
 ****
 27  28  30  31  32  35  37  42  43  44  45  46  47 0
 3-21G
 ****
 48  49 0
 3-21G
 ****


