%nproc=1
%NoSave
%Mem=1900MB
#P OB98/GEN NMR

erre ene a

0 1
  C     -476.597    -798.009     954.149
  O     -477.289    -797.583     953.000
  H     -476.417    -799.084     954.069
  H     -477.190    -797.825     955.045
  H     -475.632    -797.501     954.228
  P     -477.681    -796.026     952.876
  C     -475.766    -795.841     951.136
  O     -477.139    -795.595     951.421
  C     -475.623    -796.541     949.796
  O     -476.278    -797.836     949.802
  C     -476.261    -795.818     948.612
  O     -475.530    -794.674     948.193
  C     -476.248    -796.923     947.578
  O     -474.915    -797.096     947.060
  C     -476.682    -798.138     948.442
  N     -478.125    -798.391     948.370
  C     -478.581    -799.082     947.246
  O     -477.804    -799.441     946.365
  N     -479.938    -799.328     947.127
  C     -480.749    -798.886     948.033
  N     -482.073    -799.161     947.863
  C     -480.310    -798.147     949.229
  C     -479.001    -797.935     949.337
  O     -477.250    -795.150     954.008
  O     -479.264    -796.027     952.641
  H     -474.921    -797.905     946.518
  H     -479.558    -795.085     952.565
  H     -481.033    -797.778     949.945
  H     -478.591    -797.387     950.181
  H     -476.153    -799.038     948.127
  H     -476.906    -796.727     946.725
  H     -477.304    -795.554     948.833
  H     -474.559    -796.732     949.625
  H     -482.348    -799.669     947.036
  H     -475.344    -796.449     951.951
  H     -482.792    -798.788     948.483
  H     -475.225    -794.892     951.089
  P     -476.387    -793.367     947.809
  C     -475.885    -791.700     949.764
  O     -475.608    -792.110     948.434
  O     -477.695    -793.505     948.724
  O     -476.725    -793.230     946.357
  H     -478.441    -793.877     948.218
  H     -475.278    -790.854     950.010
  H     -475.668    -792.503     950.437
  H     -476.918    -791.434     949.848

 6  7  8  9  10  11  12  13  14  15  16  26  30  31  32  33  35 0
 6-311+G(2d,p)
 ****
 37  38 0
 6-311+G(2d,p)
 ****
 1  2  3  4  5  17  18  19  20  21  22  23  24  25 0
 3-21G
 ****
 27  28  29  34  36  39  40  41  42  43  44  45  46 0
 3-21G
 ****


