%nproc=1
%NoSave
%Mem=1900MB
#P OB98/GEN NMR

erre ene a

0 1
  C       82.652    -484.110     260.179
  O       82.750    -482.682     260.195
  P       81.692    -481.877     261.092
  C       82.623    -482.188     263.504
  O       81.640    -482.553     262.545
  C       82.152    -480.979     264.310
  O       81.153    -481.355     265.282
  C       83.263    -480.325     265.117
  O       84.077    -479.521     264.283
  C       82.478    -479.531     266.157
  O       82.175    -478.205     265.700
  C       81.184    -480.366     266.325
  N       81.078    -480.979     267.639
  C       80.737    -480.121     268.693
  O       80.570    -478.919     268.479
  N       80.622    -480.643     269.954
  C       80.855    -481.908     270.157
  N       80.729    -482.363     271.429
  C       81.242    -482.840     269.081
  C       81.339    -482.314     267.858
  O       80.285    -482.274     260.447
  O       81.900    -480.398     261.090
  H       81.851    -478.312     264.779
  H       79.658    -481.537     260.520
  H       81.435    -483.878     269.296
  H       81.618    -482.925     267.004
  H       80.303    -479.729     266.181
  H       83.050    -479.426     267.089
  H       83.869    -481.097     265.616
  H       81.712    -480.250     263.618
  H       80.463    -481.695     272.142
  H       83.572    -481.961     263.007
  H       80.893    -483.325     271.699
  H       82.813    -483.053     264.162
  P       85.591    -479.271     264.730
  C       86.487    -481.243     263.349
  O       86.294    -480.717     264.642
  O       85.439    -479.079     266.319
  O       86.319    -478.136     264.096
  H       86.299    -478.821     266.705
  H       87.149    -482.110     263.411
  H       86.950    -480.494     262.693
  H       85.528    -481.566     262.932
  H       83.414    -484.513     259.545
  H       81.690    -484.397     259.808
  H       82.779    -484.487     261.172

 3  4  5  6  7  8  9  10  11  12  13  21  23  27  28  29  30  32 0
 6-311+G(2d,p)
 ****
 34  35 0
 6-311+G(2d,p)
 ****
 1  2  14  15  16  17  18  19  20  22  24  25  26 0
 3-21G
 ****
 31  33  36  37  38  39  40  41  42  43  44  45  46 0
 3-21G
 ****


