%nproc=1
%NoSave
%Mem=1900MB
#P OB98/GEN NMR

erre ene a

0 1
  C      540.894     581.606     381.676
  O      540.329     582.775     381.117
  H      541.657     581.200     381.003
  H      541.364     581.857     382.629
  H      540.117     580.855     381.852
  P      539.614     582.620     379.687
  C      540.495     582.173     377.277
  O      540.815     582.469     378.630
  C      541.769     581.789     376.530
  O      542.580     582.974     376.293
  C      542.666     580.821     377.292
  O      542.246     579.476     377.163
  C      544.001     581.071     376.600
  O      544.011     580.394     375.329
  C      543.981     582.593     376.413
  N      548.360     584.424     378.331
  C      548.080     583.784     377.179
  N      546.891     583.337     376.721
  C      545.917     583.639     377.612
  C      546.049     584.295     378.817
  C      547.342     584.688     379.180
  N      547.634     585.318     380.372
  N      544.825     584.392     379.454
  C      543.970     583.830     378.623
  N      544.571     583.331     377.502
  O      539.052     584.091     379.383
  O      538.567     581.571     379.589
  H      544.859     580.618     374.890
  H      538.409     584.066     378.649
  H      548.931     583.592     376.517
  H      542.890     583.750     378.791
  H      544.487     582.904     375.476
  H      544.850     580.677     377.176
  H      542.763     581.114     378.348
  H      541.490     581.377     375.548
  H      540.052     583.062     376.818
  H      548.608     585.430     380.609
  H      546.913     585.392     381.075
  H      539.784     581.346     377.241
  P      542.842     578.409     378.205
  C      544.990     576.922     378.269
  O      544.338     578.065     377.705
  O      542.021     577.079     377.875
  O      542.719     578.809     379.639
  H      541.892     576.542     378.672
  H      545.967     576.823     377.844
  H      544.417     576.044     378.056
  H      545.073     577.045     379.329

 6  7  8  9  10  11  12  13  14  15  25  28  32  33  34  35 0
 6-311+G(2d,p)
 ****
 36  39  40 0
 6-311+G(2d,p)
 ****
 1  2  3  4  5  16  17  18  19  20  21  22  23  24 0
 3-21G
 ****
 26  27  29  30  31  37  38  41  42  43  44  45  46  47 0
 3-21G
 ****
 48 0
 3-21G
 ****


