%nproc=1
%NoSave
%Mem=1900MB
#P OB98/GEN NMR

erre ene a

0 1
  C       -1.812      81.348    -144.161
  O       -2.913      81.244    -143.281
  P       -3.119      82.286    -142.087
  C       -5.589      81.617    -141.950
  O       -4.383      81.811    -141.224
  C       -6.775      81.396    -141.013
  O       -6.623      80.120    -140.337
  C       -6.936      82.481    -139.939
  O       -8.340      82.702    -139.767
  C       -6.345      81.829    -138.703
  O       -6.818      82.419    -137.501
  C       -6.758      80.370    -138.924
  N       -5.959      79.441    -138.141
  C       -6.446      79.097    -136.878
  O       -7.434      79.671    -136.419
  N       -5.790      78.124    -136.166
  C       -4.649      77.679    -136.594
  N       -4.068      76.668    -135.894
  C       -3.985      78.207    -137.802
  C       -4.706      79.043    -138.544
  O       -3.156      83.721    -142.498
  O       -1.887      82.007    -141.102
  H       -1.419      82.847    -140.930
  H       -7.739      82.723    -137.639
  H       -2.980      77.897    -138.049
  H       -4.317      79.464    -139.463
  H       -7.816      80.227    -138.671
  H       -5.253      81.926    -138.724
  H       -6.452      83.422    -140.211
  H       -7.684      81.334    -141.622
  H       -4.572      76.304    -135.096
  H       -5.467      80.735    -142.583
  H       -3.367      76.055    -136.311
  H       -5.770      82.476    -142.605
  P       -8.961      84.089    -140.286
  C      -11.329      83.312    -141.006
  O      -10.547      84.028    -140.074
  O       -8.830      83.925    -141.880
  O       -8.266      85.337    -139.847
  H       -8.794      84.809    -142.287
  H      -12.383      83.433    -140.745
  H      -11.081      82.248    -140.972
  H      -11.172      83.697    -142.017
  H       -1.858      80.561    -144.884
  H       -0.902      81.269    -143.604
  H       -1.843      82.293    -144.661

 3  4  5  6  7  8  9  10  11  12  13  24  27  28  29  30  32 0
 6-311+G(2d,p)
 ****
 34  35 0
 6-311+G(2d,p)
 ****
 1  2  14  15  16  17  18  19  20  21  22  23  25  26 0
 3-21G
 ****
 31  33  36  37  38  39  40  41  42  43  44  45  46 0
 3-21G
 ****


