%nproc=1
%NoSave
%Mem=1900MB
#P OB98/GEN NMR

erre ene a

0 1
  C      631.633     249.888      38.044
  O      630.333     250.331      38.432
  P      629.996     250.315      40.004
  C      627.588     249.377      39.831
  O      628.403     250.480      40.182
  C      626.180     249.505      40.442
  O      626.251     249.423      41.901
  C      625.476     250.815      40.094
  O      624.070     250.538      40.002
  C      625.718     251.671      41.325
  O      624.789     252.754      41.414
  C      625.616     250.611      42.419
  N      624.758     252.237      47.185
  C      623.917     251.896      46.177
  N      624.220     251.497      44.934
  C      625.564     251.418      44.777
  C      626.537     251.736      45.709
  C      626.089     252.165      46.968
  N      626.940     252.545      47.978
  N      627.799     251.582      45.163
  C      627.577     251.168      43.927
  N      626.249     251.027      43.659
  O      630.587     251.714      40.520
  O      630.604     249.165      40.737
  H      624.865     253.278      40.591
  H      631.389     251.562      41.050
  H      622.855     251.966      46.409
  H      628.352     250.972      43.188
  H      624.568     250.361      42.667
  H      626.728     252.082      41.287
  H      625.833     251.298      39.182
  H      625.578     248.653      40.103
  H      628.047     248.445      40.174
  H      626.529     252.876      48.848
  H      627.930     252.547      47.812
  H      627.539     249.306      38.741
  P      623.483     250.315      38.530
  C      621.716     252.186      38.841
  O      621.970     250.818      38.566
  O      623.358     248.719      38.414
  O      624.331     250.889      37.446
  H      623.399     248.447      37.482
  H      620.897     252.526      38.192
  H      622.600     252.814      38.669
  H      621.404     252.288      39.884
  H      631.727     249.948      36.980
  H      631.773     248.875      38.358
  H      632.373     250.509      38.503

 3  4  5  6  7  8  9  10  11  12  22  25  29  30  31  32 0
 6-311+G(2d,p)
 ****
 33  36  37 0
 6-311+G(2d,p)
 ****
 1  2  13  14  15  16  17  18  19  20  21  23  24  26 0
 3-21G
 ****
 27  28  34  35  38  39  40  41  42  43  44  45  46  47  48 0
 3-21G
 ****


