%nproc=1
%NoSave
%Mem=1900MB
#P OB98/GEN NMR

erre ene a

0 1
  C      -13.931     169.834    -114.446
  O      -13.465     169.415    -115.716
  P      -12.699     170.434    -116.695
  C      -10.775     170.207    -118.392
  O      -11.647     169.523    -117.495
  C       -9.527     169.366    -118.663
  O       -8.803     169.207    -117.418
  C       -9.784     167.945    -119.171
  O       -9.987     167.840    -120.573
  C       -8.461     167.274    -118.800
  O       -7.458     167.621    -119.773
  C       -8.138     167.914    -117.447
  N       -7.209     163.725    -114.657
  C       -6.546     164.284    -115.698
  N       -6.873     165.385    -116.403
  C       -7.981     165.958    -115.902
  C       -8.761     165.515    -114.838
  C       -8.329     164.337    -114.203
  N       -8.991     163.782    -113.120
  N       -9.834     166.359    -114.635
  C       -9.701     167.301    -115.540
  N       -8.593     167.114    -116.327
  O      -12.132     171.635    -116.017
  O      -13.781     170.798    -117.814
  H       -7.482     168.594    -119.877
  H      -13.501     171.605    -118.294
  H       -5.647     163.769    -116.015
  H      -10.370     168.133    -115.675
  H       -7.064     168.100    -117.319
  H       -8.524     166.178    -118.784
  H      -10.599     167.461    -118.612
  H       -8.883     169.918    -119.365
  H      -10.473     171.153    -117.923
  H       -8.543     163.015    -112.649
  H       -9.728     164.323    -112.684
  H      -11.313     170.438    -119.318
  P      -10.629     166.466    -121.122
  C      -12.558     165.938    -122.820
  O      -11.756     166.906    -122.170
  O      -11.072     165.522    -120.058
  O       -9.468     165.884    -122.063
  H       -9.283     166.409    -122.867
  H      -13.363     166.448    -123.355
  H      -13.003     165.253    -122.096
  H      -11.953     165.382    -123.540
  H      -14.410     169.014    -113.953
  H      -14.631     170.634    -114.569
  H      -13.104     170.171    -113.856

 3  4  5  6  7  8  9  10  11  12  22  25  29  30  31  32 0
 6-311+G(2d,p)
 ****
 33  36  37 0
 6-311+G(2d,p)
 ****
 1  2  13  14  15  16  17  18  19  20  21  23  24  26 0
 3-21G
 ****
 27  28  34  35  38  39  40  41  42  43  44  45  46  47  48 0
 3-21G
 ****


