%nproc=1
%NoSave
%Mem=1900MB
#P OB98/GEN NMR

erre ene a

0 1
  C     -167.552     -74.730     -63.100
  O     -166.502     -74.109     -62.372
  P     -165.049     -74.793     -62.431
  C     -163.985     -76.848     -61.250
  O     -165.046     -75.900     -61.269
  C     -163.475     -77.054     -59.827
  O     -162.908     -75.830     -59.319
  C     -164.547     -77.458     -58.825
  O     -164.827     -78.847     -58.869
  C     -163.865     -77.095     -57.514
  O     -162.920     -78.122     -57.155
  C     -163.128     -75.803     -57.883
  N     -163.591     -72.043     -54.448
  C     -162.802     -73.139     -54.483
  N     -162.745     -74.099     -55.428
  C     -163.647     -73.868     -56.398
  C     -164.543     -72.814     -56.477
  C     -164.488     -71.860     -55.448
  N     -165.273     -70.729     -55.430
  N     -165.311     -72.915     -57.617
  C     -164.881     -74.003     -58.220
  N     -163.869     -74.609     -57.527
  O     -164.088     -73.650     -61.854
  O     -164.624     -75.256     -63.782
  H     -163.440     -78.916     -56.922
  H     -163.175     -73.790     -62.169
  H     -162.121     -73.252     -53.644
  H     -165.263     -74.383     -59.159
  H     -162.143     -75.735     -57.407
  H     -164.568     -77.003     -56.681
  H     -165.453     -76.852     -58.945
  H     -162.677     -77.807     -59.860
  H     -163.165     -76.479     -61.873
  H     -165.047     -70.008     -54.762
  H     -165.791     -70.495     -56.270
  H     -164.343     -77.795     -61.668
  P     -166.368     -79.269     -59.044
  C     -168.537     -78.629     -57.763
  O     -167.122     -78.656     -57.771
  O     -166.346     -80.844     -58.762
  O     -166.943     -78.938     -60.380
  H     -167.095     -81.281     -59.210
  H     -168.878     -78.483     -56.735
  H     -168.952     -79.571     -58.137
  H     -168.896     -77.799     -58.378
  H     -168.455     -74.171     -62.971
  H     -167.695     -75.727     -62.739
  H     -167.297     -74.760     -64.139

 3  4  5  6  7  8  9  10  11  12  22  25  29  30  31  32 0
 6-311+G(2d,p)
 ****
 33  36  37 0
 6-311+G(2d,p)
 ****
 1  2  13  14  15  16  17  18  19  20  21  23  24  26 0
 3-21G
 ****
 27  28  34  35  38  39  40  41  42  43  44  45  46  47  48 0
 3-21G
 ****


