%nproc=1
%NoSave
%Mem=1900MB
#P OB98/GEN NMR

erre ene a

0 1
  C      -88.792     130.015     220.633
  O      -89.402     129.105     219.740
  H      -89.577     130.529     221.197
  H      -88.218     130.758     220.072
  H      -88.141     129.486     221.334
  P      -88.420     128.110     218.944
  C      -87.453     128.162     216.503
  O      -88.081     128.859     217.567
  C      -86.664     129.129     215.623
  O      -87.578     130.108     215.072
  C      -85.562     129.886     216.365
  O      -84.443     130.036     215.490
  C      -86.187     131.240     216.648
  O      -85.199     132.252     216.836
  C      -87.093     131.422     215.421
  N      -88.196     132.347     215.680
  C      -88.625     133.131     214.605
  O      -88.064     133.039     213.509
  N      -89.644     134.028     214.799
  C      -90.147     134.183     215.988
  N      -91.137     135.102     216.122
  C      -89.688     133.416     217.162
  C      -88.730     132.518     216.938
  O      -89.425     126.942     218.509
  O      -87.241     127.651     219.735
  H      -84.745     132.397     215.976
  H      -90.288     127.267     218.204
  H      -90.125     133.590     218.134
  H      -88.341     131.906     217.744
  H      -86.516     131.801     214.571
  H      -86.795     131.189     217.563
  H      -85.243     129.393     217.286
  H      -86.255     128.569     214.772
  H      -91.409     135.621     215.296
  H      -88.202     127.643     215.897
  H      -91.562     135.340     217.006
  H      -86.785     127.409     216.937
  P      -82.993     129.568     215.984
  C      -80.879     130.636     217.009
  O      -82.147     130.866     216.414
  O      -82.275     128.616     215.087
  O      -83.304     128.880     217.404
  H      -82.727     128.098     217.492
  H      -80.421     131.573     217.247
  H      -80.256     130.099     216.325
  H      -81.004     130.063     217.904

 6  7  8  9  10  11  12  13  14  15  16  26  30  31  32  33  35 0
 6-311+G(2d,p)
 ****
 37  38 0
 6-311+G(2d,p)
 ****
 1  2  3  4  5  17  18  19  20  21  22  23  24  25 0
 3-21G
 ****
 27  28  29  34  36  39  40  41  42  43  44  45  46 0
 3-21G
 ****


