%nproc=1
%NoSave
%Mem=1900MB
#P OB98/GEN NMR

erre ene a

0 1
  C       10.160     184.270    -272.620
  O       10.335     183.812    -271.284
  P        9.852     182.331    -270.909
  C        9.883     181.054    -268.593
  O        9.607     182.219    -269.335
  C        9.653     181.337    -267.092
  O       10.659     182.252    -266.595
  C        8.291     181.972    -266.810
  O        7.277     181.000    -266.644
  C        8.577     182.767    -265.545
  O        8.607     181.900    -264.402
  C        9.997     183.312    -265.843
  N       10.114     184.569    -266.615
  C       11.267     185.347    -266.491
  O       12.221     185.065    -265.772
  N       11.308     186.487    -267.255
  C       10.423     186.839    -268.229
  O       10.534     187.840    -268.925
  C        9.298     185.908    -268.421
  C        9.195     184.846    -267.616
  O       11.147     181.433    -271.165
  O        8.667     181.852    -271.702
  H        8.856     182.445    -263.628
  H       10.984     180.800    -271.889
  H       12.107     187.095    -267.125
  H        8.597     186.125    -269.216
  H        8.368     184.153    -267.752
  H       10.560     183.453    -264.920
  H        7.791     183.499    -265.354
  H        8.027     182.685    -267.601
  H        9.744     180.392    -266.546
  H       10.915     180.728    -268.751
  H        9.236     180.241    -268.930
  P        6.022     180.978    -267.645
  C        5.232     179.159    -269.267
  O        5.773     179.427    -267.992
  O        6.102     181.897    -268.820
  O        4.774     181.325    -266.698
  H        4.560     182.286    -266.735
  H        5.259     178.070    -269.437
  H        5.814     179.655    -270.051
  H        4.191     179.497    -269.309
  H       10.531     185.270    -272.706
  H        9.120     184.253    -272.870
  H       10.698     183.632    -273.289

 3  4  5  6  7  8  9  10  11  12  13  23  28  29  30  31  32 0
 6-311+G(2d,p)
 ****
 33  34 0
 6-311+G(2d,p)
 ****
 1  2  14  15  16  17  18  19  20  21  22  24  25  26  27 0
 3-21G
 ****
 35  36  37  38  39  40  41  42  43  44  45 0
 3-21G
 ****


