%nproc=1
%NoSave
%Mem=1900MB
#P OB98/GEN NMR

erre ene a

0 1
  C       49.692      18.927    -194.783
  O       49.380      20.227    -195.243
  H       50.779      18.824    -194.734
  H       49.299      18.186    -195.482
  H       49.277      18.757    -193.785
  P       47.857      20.707    -195.078
  C       48.326      21.288    -192.592
  O       47.509      20.584    -193.515
  C       47.497      22.317    -191.831
  O       46.356      21.687    -191.209
  C       48.253      23.032    -190.715
  O       49.016      24.122    -191.215
  C       47.096      23.522    -189.860
  O       46.495      24.683    -190.476
  C       46.125      22.336    -189.926
  N       45.508      21.393    -184.981
  C       45.275      22.551    -185.698
  N       44.821      23.611    -184.996
  N       45.474      22.665    -186.985
  C       45.952      21.532    -187.553
  C       46.230      20.326    -186.948
  C       45.989      20.211    -185.529
  O       46.170      19.204    -184.848
  N       46.702      19.407    -187.848
  C       46.734      20.062    -188.991
  N       46.291      21.356    -188.865
  O       47.034      19.507    -195.748
  O       47.529      22.014    -195.718
  H       46.079      24.383    -191.305
  H       46.746      19.782    -196.640
  H       45.348      21.364    -183.989
  H       47.058      19.647    -189.935
  H       45.077      22.654    -189.904
  H       47.408      23.823    -188.858
  H       44.668      23.599    -183.999
  H       48.870      22.337    -190.133
  H       44.640      24.470    -185.502
  H       47.110      23.041    -192.561
  H       49.127      21.795    -193.139
  H       48.767      20.571    -191.891
  P       50.261      24.638    -190.347
  C       51.952      22.755    -190.911
  O       51.111      23.339    -189.927
  O       49.570      25.091    -188.976
  O       51.044      25.750    -190.955
  H       49.619      26.061    -188.884
  H       52.452      21.906    -190.494
  H       52.677      23.473    -191.233
  H       51.361      22.446    -191.748

 6  7  8  9  10  11  12  13  14  15  26  29  33  34 0
 6-311+G(2d,p)
 ****
 36  38  39  40  41 0
 6-311+G(2d,p)
 ****
 1  2  3  4  5  16  17  18  19  20  21  22  23  24  25 0
 3-21G
 ****
 27  28  30  31  32  35  37  42  43  44  45  46  47 0
 3-21G
 ****
 48  49 0
 3-21G
 ****


