%nproc=1
%NoSave
%Mem=1900MB
#P OB98/GEN NMR

erre ene a

0 1
  C     -899.256    -680.609    -126.419
  O     -898.566    -680.379    -127.632
  P     -897.396    -679.272    -127.622
  C     -895.176    -680.625    -127.549
  O     -896.166    -679.913    -126.809
  C     -893.806    -679.972    -127.402
  O     -893.816    -678.694    -128.086
  C     -893.376    -679.723    -125.953
  O     -891.966    -679.953    -125.865
  C     -893.646    -678.247    -125.756
  O     -892.836    -677.699    -124.707
  C     -893.356    -677.690    -127.154
  N     -894.016    -676.411    -127.382
  C     -893.706    -675.748    -128.578
  O     -892.856    -676.214    -129.336
  N     -894.336    -674.559    -128.858
  C     -895.116    -674.023    -127.968
  N     -895.716    -672.840    -128.291
  C     -895.366    -674.628    -126.644
  C     -894.816    -675.819    -126.430
  O     -897.966    -678.159    -126.624
  O     -897.066    -678.705    -128.970
  H     -893.206    -678.022    -123.850
  H     -897.656    -677.270    -126.881
  H     -895.996    -674.119    -125.925
  H     -894.956    -676.347    -125.503
  H     -892.276    -677.567    -127.306
  H     -894.696    -678.091    -125.485
  H     -893.896    -680.369    -125.245
  H     -893.066    -680.601    -127.912
  H     -895.516    -672.442    -129.198
  H     -895.456    -680.616    -128.606
  H     -896.336    -672.348    -127.666
  H     -895.156    -681.664    -127.205
  P     -891.436    -680.874    -124.665
  C     -891.626    -683.072    -125.990
  O     -892.116    -682.307    -124.909
  O     -892.296    -680.318    -123.428
  O     -889.976    -680.865    -124.356
  H     -892.016    -680.761    -122.611
  H     -892.086    -684.059    -125.956
  H     -890.546    -683.170    -125.927
  H     -891.906    -682.586    -126.938
  H     -900.000    -681.363    -126.569
  H     -899.726    -679.703    -126.099
  H     -898.564    -680.935    -125.671

 3  4  5  6  7  8  9  10  11  12  13  21  23  27  28  29  30  32 0
 6-311+G(2d,p)
 ****
 34  35 0
 6-311+G(2d,p)
 ****
 1  2  14  15  16  17  18  19  20  22  24  25  26 0
 3-21G
 ****
 31  33  36  37  38  39  40  41  42  43  44  45  46 0
 3-21G
 ****


