%nproc=1
%NoSave
%Mem=1900MB
#P OB98/GEN NMR

erre ene a

0 1
  C     -331.176     361.190    -250.478
  O     -330.729     360.838    -251.773
  P     -331.141     359.438    -252.432
  C     -331.044     356.926    -251.669
  O     -330.996     358.295    -251.330
  C     -330.052     356.153    -250.783
  O     -330.140     356.623    -249.418
  C     -330.335     354.657    -250.792
  O     -329.538     354.002    -251.764
  C     -330.012     354.249    -249.370
  O     -328.593     354.064    -249.213
  C     -330.487     355.489    -248.576
  N     -331.925     355.601    -248.233
  C     -332.400     355.013    -247.071
  O     -331.692     354.428    -246.258
  N     -333.758     355.104    -246.870
  C     -334.638     355.757    -247.691
  O     -335.863     355.629    -247.635
  C     -334.040     356.571    -248.748
  C     -332.736     356.437    -248.990
  O     -329.932     359.137    -253.441
  O     -332.466     359.425    -253.126
  H     -328.444     353.769    -248.300
  H     -330.172     359.391    -254.349
  H     -334.135     354.567    -246.097
  H     -334.694     357.214    -249.335
  H     -332.274     357.009    -249.792
  H     -329.930     355.591    -247.635
  H     -330.475     353.298    -249.117
  H     -331.407     354.479    -250.982
  H     -329.031     356.353    -251.149
  H     -330.796     356.795    -252.727
  H     -332.060     356.536    -251.527
  P     -330.032     352.611    -252.387
  C     -330.912     350.420    -251.389
  O     -330.262     351.642    -251.123
  O     -329.173     352.050    -253.479
  O     -331.509     352.941    -252.904
  H     -331.500     353.131    -253.865
  H     -330.848     349.785    -250.500
  H     -330.432     349.901    -252.230
  H     -331.967     350.608    -251.615
  H     -330.796     362.156    -250.220
  H     -330.825     360.468    -249.771
  H     -332.246     361.212    -250.464

 3  4  5  6  7  8  9  10  11  12  13  23  28  29  30  31  32 0
 6-311+G(2d,p)
 ****
 33  34 0
 6-311+G(2d,p)
 ****
 1  2  14  15  16  17  18  19  20  21  22  24  25  26  27 0
 3-21G
 ****
 35  36  37  38  39  40  41  42  43  44  45 0
 3-21G
 ****


