%nproc=1
%NoSave
%Mem=1900MB
#P OB98/GEN NMR

erre ene a

0 1
  C      -24.441    -142.053       4.689
  O      -25.446    -142.973       5.066
  H      -24.880    -141.307       4.020
  H      -23.636    -142.570       4.159
  H      -24.042    -141.546       5.571
  P      -24.980    -144.188       6.006
  C      -25.651    -142.907       8.156
  O      -24.610    -143.542       7.428
  C      -25.701    -143.433       9.587
  O      -24.403    -143.336      10.213
  C      -26.682    -142.698      10.494
  O      -27.996    -143.205      10.335
  C      -26.098    -142.999      11.867
  O      -26.475    -144.320      12.312
  C      -24.589    -142.929      11.596
  N      -20.541    -140.518      13.413
  C      -20.858    -141.861      13.424
  N      -19.979    -142.687      14.035
  N      -21.946    -142.356      12.894
  C      -22.762    -141.411      12.371
  C      -22.562    -140.050      12.300
  C      -21.328    -139.525      12.841
  O      -20.952    -138.357      12.789
  N      -23.612    -139.428      11.675
  C      -24.456    -140.403      11.401
  N      -23.987    -141.624      11.809
  O      -23.550    -144.596       5.405
  O      -25.901    -145.359       6.044
  H      -26.096    -144.980      11.706
  H      -23.459    -145.566       5.449
  H      -19.676    -140.197      13.808
  H      -25.409    -140.280      10.902
  H      -24.028    -143.635      12.219
  H      -26.466    -142.304      12.622
  H      -19.297    -142.345      14.697
  H      -26.650    -141.617      10.315
  H      -20.249    -143.659      14.106
  H      -25.951    -144.501       9.535
  H      -26.605    -143.111       7.660
  H      -25.476    -141.826       8.166
  P      -29.225    -142.198      10.539
  C      -28.533    -140.849       8.430
  O      -28.854    -140.813       9.813
  O      -29.140    -141.839      12.096
  O      -30.560    -142.765      10.193
  H      -29.845    -142.305      12.582
  H      -28.310    -139.859       8.090
  H      -29.366    -141.236       7.881
  H      -27.682    -141.479       8.278

 6  7  8  9  10  11  12  13  14  15  26  29  33  34 0
 6-311+G(2d,p)
 ****
 36  38  39  40  41 0
 6-311+G(2d,p)
 ****
 1  2  3  4  5  16  17  18  19  20  21  22  23  24  25 0
 3-21G
 ****
 27  28  30  31  32  35  37  42  43  44  45  46  47 0
 3-21G
 ****
 48  49 0
 3-21G
 ****


