%nproc=1
%NoSave
%Mem=1900MB
#P OB98/GEN NMR

erre ene a

0 1
  C       -8.351     141.597     -44.931
  O       -8.494     140.279     -44.447
  P       -8.044     139.829     -42.982
  C       -9.518     137.701     -42.772
  O       -8.202     138.233     -42.875
  C       -9.546     136.165     -42.788
  O       -9.152     135.691     -44.092
  C       -8.518     135.609     -41.797
  O       -8.843     135.489     -40.427
  C       -7.992     134.336     -42.447
  O       -8.625     133.160     -41.940
  C       -8.325     134.528     -43.928
  N       -3.997     132.421     -45.514
  C       -5.060     131.833     -44.858
  N       -4.854     130.577     -44.407
  N       -6.202     132.435     -44.647
  C       -6.221     133.720     -45.072
  C       -5.237     134.405     -45.746
  C       -3.997     133.716     -46.009
  O       -3.000     134.228     -46.513
  N       -5.579     135.716     -45.954
  C       -6.754     135.839     -45.371
  N       -7.167     134.664     -44.787
  O       -8.520     140.673     -41.844
  O       -6.442     140.005     -43.075
  H       -9.563     133.188     -42.200
  H       -6.127     140.290     -42.195
  H       -3.111     131.934     -45.577
  H       -7.327     136.756     -45.313
  H       -8.905     133.678     -44.307
  H       -6.919     134.217     -42.252
  H       -3.944     130.141     -44.423
  H       -7.666     136.301     -41.806
  H       -5.544     130.180     -43.778
  H      -10.559     135.789     -42.628
  H      -10.102     138.106     -43.604
  H       -9.985     138.057     -41.850
  P       -8.027     136.108     -39.199
  C      -10.256     136.312     -37.963
  O       -8.898     135.923     -37.870
  O       -8.084     137.690     -39.445
  O       -6.609     135.651     -39.091
  H       -7.347     138.123     -38.974
  H      -10.663     136.432     -36.956
  H      -10.824     135.534     -38.484
  H      -10.357     137.258     -38.504
  H       -8.722     141.651     -45.933
  H       -7.317     141.871     -44.918
  H       -8.906     142.268     -44.309

 3  4  5  6  7  8  9  10  11  12  23  26  30  31 0
 6-311+G(2d,p)
 ****
 33  35  36  37  38 0
 6-311+G(2d,p)
 ****
 1  2  13  14  15  16  17  18  19  20  21  22  24  25 0
 3-21G
 ****
 27  28  29  32  34  39  40  41  42  43  44  45  46  47  48  49 0
 3-21G
 ****


