%nproc=1
%NoSave
%Mem=1900MB
#P OB98/GEN NMR

erre ene a

0 1
  C      180.488     285.977      37.071
  O      181.708     286.661      36.766
  P      181.650     287.966      35.831
  C      181.814     286.867      33.502
  O      180.986     287.567      34.426
  C      180.989     286.373      32.288
  O      180.520     287.507      31.497
  C      181.808     285.473      31.359
  O      180.952     284.473      30.755
  C      182.243     286.424      30.264
  O      182.601     285.725      29.066
  C      181.001     287.317      30.147
  N      182.618     289.634      25.868
  C      182.373     288.335      26.155
  N      181.911     287.797      27.304
  C      181.712     288.757      28.220
  C      181.925     290.122      28.087
  C      182.398     290.554      26.838
  N      182.692     291.881      26.574
  N      181.597     290.781      29.252
  C      181.259     289.843      30.090
  N      181.286     288.592      29.524
  O      182.916     288.746      35.723
  O      180.495     288.844      36.521
  H      182.615     286.393      28.336
  H      180.774     289.790      36.532
  H      182.561     287.644      25.340
  H      181.004     289.990      31.144
  H      180.202     286.830      29.579
  H      183.126     286.994      30.605
  H      182.658     284.964      31.840
  H      180.099     285.861      32.660
  H      182.288     286.022      33.998
  H      183.140     292.084      25.692
  H      182.654     292.555      27.322
  H      182.628     287.520      33.186
  P      181.015     283.016      31.433
  C      183.236     281.812      30.723
  O      182.564     282.671      31.627
  O      180.209     281.987      30.701
  O      180.467     283.306      32.913
  H      180.916     284.054      33.362
  H      184.314     281.836      30.962
  H      183.093     282.169      29.700
  H      182.856     280.799      30.828
  H      180.698     285.136      37.699
  H      180.032     285.640      36.164
  H      179.822     286.644      37.578

 3  4  5  6  7  8  9  10  11  12  22  25  29  30  31  32 0
 6-311+G(2d,p)
 ****
 33  36  37 0
 6-311+G(2d,p)
 ****
 1  2  13  14  15  16  17  18  19  20  21  23  24  26 0
 3-21G
 ****
 27  28  34  35  38  39  40  41  42  43  44  45  46  47  48 0
 3-21G
 ****


