%nproc=1
%NoSave
%Mem=1900MB
#P OB98/GEN NMR

erre ene a

0 1
  C     -536.005     610.201     726.474
  O     -537.255     610.391     725.829
  P     -537.378     610.236     724.236
  C     -539.489     610.036     722.772
  O     -538.845     609.631     723.979
  C     -540.043     608.804     722.030
  O     -538.958     607.975     721.554
  C     -540.929     607.898     722.869
  O     -542.218     608.464     723.029
  C     -540.893     606.619     722.065
  O     -541.833     606.654     720.994
  C     -539.440     606.615     721.519
  N     -538.566     605.708     722.271
  C     -538.563     604.376     721.854
  O     -539.289     604.021     720.911
  N     -537.763     603.476     722.509
  C     -537.068     603.859     723.533
  N     -536.304     602.922     724.155
  C     -537.068     605.242     724.033
  C     -537.839     606.106     723.363
  O     -536.258     609.498     723.583
  O     -537.518     611.745     723.744
  H     -542.729     606.660     721.402
  H     -536.656     612.230     723.782
  H     -536.472     605.532     724.881
  H     -537.909     607.159     723.659
  H     -539.423     606.300     720.474
  H     -541.127     605.731     722.684
  H     -540.462     607.722     723.861
  H     -540.605     609.167     721.150
  H     -536.356     601.977     723.803
  H     -538.754     610.534     722.140
  H     -535.752     603.111     724.985
  H     -540.298     610.737     723.007
  P     -543.366     607.642     723.786
  C     -545.911     607.993     724.016
  O     -544.619     608.620     723.968
  O     -542.934     606.920     725.027
  O     -543.879     606.611     722.674
  H     -543.970     605.724     723.094
  H     -546.623     608.708     724.461
  H     -545.888     607.089     724.600
  H     -546.212     607.767     722.993
  H     -536.122     610.345     727.528
  H     -535.296     610.907     726.094
  H     -535.654     609.208     726.287

 3  4  5  6  7  8  9  10  11  12  13  23  27  28  29  30  32 0
 6-311+G(2d,p)
 ****
 34  35 0
 6-311+G(2d,p)
 ****
 1  2  14  15  16  17  18  19  20  21  22  24  25  26 0
 3-21G
 ****
 31  33  36  37  38  39  40  41  42  43  44  45  46 0
 3-21G
 ****


