%nproc=1
%NoSave
%Mem=1900MB
#P OB98/GEN NMR

erre ene a

0 1
  C       58.446       6.860      74.084
  O       57.224       7.560      74.303
  P       56.859       8.783      73.336
  C       57.655      11.288      73.034
  O       57.740      10.058      73.718
  C       57.853      12.439      74.035
  O       56.790      12.439      75.013
  C       59.168      12.351      74.803
  O       60.237      12.957      74.099
  C       58.821      13.055      76.100
  O       58.829      14.482      75.912
  C       57.378      12.550      76.341
  N       57.200      11.262      77.045
  C       57.653      11.120      78.354
  O       58.213      12.007      78.993
  N       57.432       9.900      78.938
  C       56.672       8.888      78.429
  O       56.458       7.840      79.023
  C       56.091       9.145      77.108
  C       56.384      10.288      76.484
  O       55.381       9.192      73.782
  O       56.934       8.459      71.876
  H       58.362      14.666      75.078
  H       54.750       9.033      73.055
  H       57.817       9.755      79.859
  H       55.442       8.389      76.686
  H       55.959      10.488      75.503
  H       56.796      13.295      76.896
  H       59.557      12.846      76.872
  H       59.399      11.308      75.039
  H       57.806      13.387      73.484
  H       56.690      11.391      72.534
  H       58.423      11.329      72.255
  P       61.470      12.066      73.601
  C       62.985      10.311      74.698
  O       62.031      11.334      74.914
  O       62.489      12.766      72.766
  O       60.767      10.862      72.808
  H       60.745      11.048      71.841
  H       63.399      10.008      75.663
  H       63.796      10.672      74.060
  H       62.502       9.447      74.233
  H       58.543       6.077      74.807
  H       59.268       7.538      74.180
  H       58.444       6.439      73.100

 3  4  5  6  7  8  9  10  11  12  13  23  28  29  30  31  32 0
 6-311+G(2d,p)
 ****
 33  34 0
 6-311+G(2d,p)
 ****
 1  2  14  15  16  17  18  19  20  21  22  24  25  26  27 0
 3-21G
 ****
 35  36  37  38  39  40  41  42  43  44  45 0
 3-21G
 ****


