%nproc=1
%NoSave
%Mem=1900MB
#P OB98/GEN NMR

erre ene a

0 1
  C      -43.918    -121.134    -245.917
  O      -42.522    -121.295    -246.058
  H      -44.112    -120.282    -245.255
  H      -44.358    -122.030    -245.473
  H      -44.382    -120.936    -246.888
  P      -42.018    -122.421    -247.084
  C      -41.874    -124.225    -245.214
  O      -42.448    -123.834    -246.452
  C      -41.811    -125.755    -245.136
  O      -43.168    -126.275    -245.131
  C      -41.076    -126.397    -246.328
  O      -40.343    -127.537    -245.862
  C      -42.213    -126.845    -247.229
  O      -41.854    -127.904    -248.109
  C      -43.269    -127.249    -246.197
  N      -44.620    -127.271    -246.751
  C      -45.098    -128.490    -247.233
  O      -44.494    -129.554    -247.163
  N      -46.335    -128.445    -247.835
  C      -47.108    -127.330    -248.009
  O      -48.199    -127.345    -248.576
  C      -46.547    -126.071    -247.485
  C      -45.346    -126.104    -246.891
  O      -40.425    -122.407    -246.898
  O      -42.431    -122.231    -248.504
  H      -40.014    -121.778    -247.520
  H      -42.634    -128.118    -248.662
  H      -46.695    -129.315    -248.189
  H      -47.127    -125.167    -247.613
  H      -44.901    -125.189    -246.511
  H      -43.032    -128.229    -245.765
  H      -42.565    -126.006    -247.836
  H      -40.403    -125.702    -246.832
  H      -41.349    -126.048    -244.184
  H      -42.493    -123.849    -244.396
  H      -40.870    -123.803    -245.131
  P      -38.768    -127.337    -245.577
  C      -38.399    -127.753    -248.138
  O      -38.119    -126.957    -247.000
  O      -38.305    -128.841    -245.314
  O      -38.496    -126.377    -244.463
  H      -38.762    -129.496    -245.871
  H      -37.886    -127.353    -248.988
  H      -39.453    -127.751    -248.324
  H      -38.070    -128.756    -247.962

 6  7  8  9  10  11  12  13  14  15  16  27  31  32  33  34  35 0
 6-311+G(2d,p)
 ****
 36  37 0
 6-311+G(2d,p)
 ****
 1  2  3  4  5  17  18  19  20  21  22  23  24  25 0
 3-21G
 ****
 26  28  29  30  38  39  40  41  42  43  44  45 0
 3-21G
 ****


