%nproc=1
%NoSave
%Mem=1900MB
#P OB98/GEN NMR

erre ene a

0 1
  C      103.980      -2.844     -97.416
  O      104.562      -1.561     -97.164
  P      103.980      -0.715     -95.933
  C      104.154      -1.987     -93.667
  O      104.783      -1.125     -94.609
  C      103.977      -1.266     -92.330
  O      103.085      -1.990     -91.462
  C      105.272      -1.131     -91.547
  O      106.063      -0.083     -92.071
  C      104.764      -0.871     -90.135
  O      104.590       0.533     -89.882
  C      103.404      -1.605     -90.112
  N      103.400      -2.752     -89.221
  C      103.050      -2.493     -87.891
  O      102.790      -1.343     -87.532
  N      103.029      -3.537     -87.003
  C      103.354      -4.728     -87.400
  N      103.320      -5.721     -86.473
  C      103.755      -5.038     -88.787
  C      103.758      -4.013     -89.636
  O      102.532      -1.356     -95.700
  O      103.896       0.753     -96.193
  H      105.488       0.921     -89.925
  H      101.909      -0.677     -95.385
  H      104.025      -6.045     -89.069
  H      104.040      -4.148     -90.675
  H      102.608      -0.923     -89.787
  H      105.467      -1.241     -89.383
  H      105.826      -2.078     -91.573
  H      103.551      -0.272     -92.524
  H      103.043      -5.472     -85.531
  H      104.750      -2.891     -93.528
  H      103.560      -6.681     -86.670
  H      103.188      -2.307     -94.073
  P      107.572      -0.423     -92.485
  C      107.174      -2.285     -94.206
  O      107.484      -0.920     -94.008
  O      107.831      -1.799     -91.705
  O      108.613       0.598     -92.177
  H      108.762      -2.068     -91.800
  H      106.941      -2.441     -95.262
  H      106.306      -2.574     -93.609
  H      108.035      -2.904     -93.941
  H      104.461      -3.294     -98.259
  H      102.936      -2.728     -97.620
  H      104.108      -3.469     -96.557

 3  4  5  6  7  8  9  10  11  12  13  21  23  27  28  29  30  32 0
 6-311+G(2d,p)
 ****
 34  35 0
 6-311+G(2d,p)
 ****
 1  2  14  15  16  17  18  19  20  22  24  25  26 0
 3-21G
 ****
 31  33  36  37  38  39  40  41  42  43  44  45  46 0
 3-21G
 ****


