%nproc=1
%NoSave
%Mem=1900MB
#P OB98/GEN NMR

erre ene a

0 1
  C      269.472      63.443     249.076
  O      269.911      62.827     247.881
  H      270.152      63.163     249.885
  H      268.464      63.106     249.330
  H      269.482      64.531     248.965
  P      268.977      63.034     246.590
  C      267.904      60.664     246.797
  O      267.722      62.070     246.876
  C      266.566      59.988     246.520
  O      266.679      58.557     246.655
  C      265.450      60.399     247.477
  O      264.887      61.662     247.159
  C      264.465      59.269     247.249
  O      263.780      59.468     245.998
  C      265.418      58.052     247.174
  N      265.617      57.397     248.467
  C      264.622      56.501     248.876
  O      263.633      56.302     248.176
  N      264.754      55.879     250.095
  C      265.792      56.118     250.836
  N      265.866      55.484     252.038
  C      266.873      57.038     250.434
  C      266.723      57.637     249.255
  O      269.758      62.254     245.431
  O      268.624      64.444     246.254
  H      263.239      60.273     246.097
  H      269.197      62.216     244.617
  H      267.713      57.213     251.089
  H      267.475      58.329     248.895
  H      265.046      57.309     246.459
  H      263.701      59.202     248.027
  H      265.782      60.370     248.521
  H      266.290      60.197     245.476
  H      265.081      54.907     252.313
  H      268.315      60.314     247.749
  H      266.537      55.741     252.750
  H      268.606      60.421     245.992
  P      264.348      62.564     248.374
  C      261.841      62.400     247.722
  O      262.845      62.091     248.678
  O      264.154      64.000     247.698
  O      265.254      62.622     249.565
  H      264.418      64.714     248.307
  H      260.898      62.024     248.060
  H      262.090      61.948     246.785
  H      261.779      63.461     247.601

 6  7  8  9  10  11  12  13  14  15  16  26  30  31  32  33  35 0
 6-311+G(2d,p)
 ****
 37  38 0
 6-311+G(2d,p)
 ****
 1  2  3  4  5  17  18  19  20  21  22  23  24  25 0
 3-21G
 ****
 27  28  29  34  36  39  40  41  42  43  44  45  46 0
 3-21G
 ****


