%nproc=1
%NoSave
%Mem=1900MB
#P OB98/GEN NMR

erre ene a

0 1
  C     -596.358     112.934     416.264
  O     -596.531     111.539     416.163
  H     -595.667     113.248     415.474
  H     -595.920     113.197     417.230
  H     -597.311     113.449     416.122
  P     -597.346     110.769     417.319
  C     -595.464     110.200     418.966
  O     -596.542     111.086     418.677
  C     -594.788     110.542     420.300
  O     -595.721     110.303     421.390
  C     -593.533     109.720     420.584
  O     -592.486     110.592     421.041
  C     -593.959     108.777     421.713
  O     -592.846     108.333     422.479
  C     -594.988     109.652     422.434
  N     -595.864     108.869     423.305
  C     -595.418     108.642     424.614
  O     -594.305     109.051     424.966
  N     -596.198     107.921     425.472
  C     -597.327     107.417     425.054
  N     -598.055     106.703     425.953
  C     -597.828     107.599     423.674
  C     -597.056     108.338     422.864
  O     -597.591     109.320     417.054
  O     -598.694     111.622     417.493
  H     -593.185     107.832     423.260
  H     -599.383     111.057     417.932
  H     -598.767     107.162     423.373
  H     -597.349     108.527     421.834
  H     -594.501     110.417     423.045
  H     -594.445     107.897     421.276
  H     -593.164     109.163     419.720
  H     -594.584     111.621     420.308
  H     -597.678     106.613     426.892
  H     -594.737     110.250     418.150
  H     -598.941     106.266     425.743
  H     -595.860     109.177     419.021
  P     -591.648     111.344     419.899
  C     -589.417     110.077     420.314
  O     -590.474     110.360     419.404
  O     -590.873     112.498     420.700
  O     -592.496     111.915     418.803
  H     -591.336     113.347     420.587
  H     -588.716     109.415     419.851
  H     -589.817     109.616     421.193
  H     -588.924     110.988     420.582

 6  7  8  9  10  11  12  13  14  15  16  26  30  31  32  33  35 0
 6-311+G(2d,p)
 ****
 37  38 0
 6-311+G(2d,p)
 ****
 1  2  3  4  5  17  18  19  20  21  22  23  24  25 0
 3-21G
 ****
 27  28  29  34  36  39  40  41  42  43  44  45  46 0
 3-21G
 ****


