%nproc=1
%NoSave
%Mem=1900MB
#P OB98/GEN NMR

erre ene a

0 1
  C      242.317    -297.584    -387.831
  O      242.739    -298.932    -387.854
  H      241.867    -297.341    -388.795
  H      243.172    -296.925    -387.668
  H      241.572    -297.430    -387.042
  P      243.415    -299.510    -386.519
  C      245.674    -298.236    -386.750
  O      244.450    -298.370    -386.046
  C      246.642    -297.324    -385.984
  O      247.075    -298.003    -384.778
  C      247.889    -296.952    -386.784
  O      248.178    -295.562    -386.590
  C      248.990    -297.809    -386.193
  O      250.282    -297.235    -386.354
  C      248.512    -297.983    -384.739
  N      249.052    -299.191    -384.124
  C      250.446    -299.334    -384.124
  O      251.156    -298.475    -384.633
  N      250.995    -300.471    -383.591
  C      250.216    -301.419    -383.150
  N      250.813    -302.531    -382.655
  C      248.738    -301.332    -383.185
  C      248.237    -300.197    -383.670
  O      244.368    -300.669    -387.072
  O      242.461    -299.965    -385.463
  H      250.941    -297.844    -385.935
  H      244.683    -301.257    -386.347
  H      248.133    -302.154    -382.825
  H      247.156    -300.050    -383.730
  H      248.822    -297.111    -384.136
  H      248.995    -298.792    -386.693
  H      247.786    -297.145    -387.851
  H      246.093    -296.436    -385.658
  H      251.826    -302.558    -382.664
  H      245.467    -297.803    -387.738
  H      250.313    -303.344    -382.322
  H      246.127    -299.219    -386.884
  P      247.976    -294.614    -387.879
  C      249.835    -295.493    -389.454
  O      248.448    -295.449    -389.169
  O      249.098    -293.498    -387.703
  O      246.604    -294.040    -387.972
  H      248.724    -292.687    -387.335
  H      250.000    -296.080    -390.334
  H      250.355    -295.933    -388.629
  H      250.198    -294.499    -389.615

 6  7  8  9  10  11  12  13  14  15  16  26  30  31  32  33  35 0
 6-311+G(2d,p)
 ****
 37  38 0
 6-311+G(2d,p)
 ****
 1  2  3  4  5  17  18  19  20  21  22  23  24  25 0
 3-21G
 ****
 27  28  29  34  36  39  40  41  42  43  44  45  46 0
 3-21G
 ****


