%nproc=1
%NoSave
%Mem=1900MB
#P OB98/GEN NMR

erre ene a

0 1
  C        4.115     -16.221     -76.019
  O        2.783     -16.326     -76.488
  H        4.285     -15.198     -75.674
  H        4.817     -16.441     -76.828
  H        4.275     -16.909     -75.185
  P        2.325     -17.769     -77.022
  C        2.129     -20.067     -75.846
  O        2.717     -18.771     -75.833
  C        3.072     -21.088     -75.211
  O        4.254     -21.251     -76.014
  C        3.566     -20.707     -73.820
  O        2.592     -21.020     -72.837
  C        4.793     -21.599     -73.702
  O        4.389     -22.938     -73.356
  C        5.362     -21.578     -75.132
  N       10.448     -20.929     -75.394
  C        9.695     -21.974     -74.986
  N        8.352     -22.062     -74.903
  C        7.775     -20.914     -75.297
  C        8.412     -19.764     -75.741
  C        9.815     -19.800     -75.791
  N       10.577     -18.734     -76.219
  N        7.493     -18.785     -76.058
  C        6.320     -19.355     -75.861
  N        6.438     -20.629     -75.366
  O        2.804     -18.136     -78.385
  O        0.734     -17.660     -76.866
  H        5.163     -23.520     -73.481
  H        0.503     -17.180     -76.052
  H       10.248     -22.861     -74.688
  H        5.364     -18.894     -76.077
  H        5.743     -22.560     -75.433
  H        5.477     -21.261     -72.922
  H        3.879     -19.659     -73.779
  H        2.555     -22.055     -75.193
  H        1.890     -20.368     -76.870
  H       11.575     -18.783     -76.063
  H       10.113     -17.855     -76.395
  H        1.196     -20.010     -75.275
  P        2.437     -20.110     -71.525
  C        1.653     -17.698     -71.098
  O        2.231     -18.602     -72.035
  O        3.515     -20.279     -70.509
  O        1.003     -20.493     -70.936
  H        1.029     -20.514     -69.960
  H        1.564     -16.730     -71.545
  H        2.277     -17.635     -70.231
  H        0.683     -18.050     -70.814

 6  7  8  9  10  11  12  13  14  15  25  28  32  33  34  35 0
 6-311+G(2d,p)
 ****
 36  39  40 0
 6-311+G(2d,p)
 ****
 1  2  3  4  5  16  17  18  19  20  21  22  23  24 0
 3-21G
 ****
 26  27  29  30  31  37  38  41  42  43  44  45  46  47 0
 3-21G
 ****
 48 0
 3-21G
 ****


