%nproc=1
%NoSave
%Mem=1900MB
#P OB98/GEN NMR

erre ene a

0 1
  C      293.408      33.185    -262.013
  O      292.160      33.417    -261.359
  P      292.139      34.139    -259.930
  C      290.931      36.247    -260.815
  O      292.069      35.727    -260.139
  C      290.642      37.671    -260.334
  O      290.384      37.708    -258.910
  C      291.818      38.617    -260.539
  O      292.131      38.963    -261.872
  C      291.488      39.754    -259.587
  O      290.576      40.683    -260.169
  C      290.820      38.993    -258.417
  N      291.703      38.846    -257.259
  C      291.453      39.699    -256.187
  O      290.578      40.562    -256.201
  N      292.275      39.548    -255.103
  C      293.316      38.673    -255.003
  O      294.036      38.596    -254.011
  C      293.546      37.817    -256.175
  C      292.745      37.939    -257.233
  O      293.164      33.670    -258.952
  O      290.662      33.802    -259.387
  H      290.468      41.419    -259.539
  H      290.737      33.595    -258.435
  H      292.103      40.152    -254.313
  H      294.369      37.115    -256.131
  H      292.895      37.316    -258.108
  H      289.919      39.524    -258.081
  H      292.384      40.318    -259.307
  H      292.717      38.124    -260.144
  H      289.743      38.034    -260.840
  H      290.067      35.604    -260.635
  H      291.115      36.221    -261.896
  P      293.035      38.044    -262.829
  C      291.108      37.887    -264.557
  O      292.060      37.198    -263.779
  O      294.179      37.320    -262.204
  O      293.619      39.136    -263.855
  H      294.514      38.854    -264.122
  H      290.524      37.156    -265.126
  H      291.600      38.563    -265.258
  H      290.427      38.450    -263.911
  H      293.235      32.697    -262.949
  H      294.024      32.565    -261.396
  H      293.900      34.120    -262.184

 3  4  5  6  7  8  9  10  11  12  13  23  28  29  30  31  32 0
 6-311+G(2d,p)
 ****
 33  34 0
 6-311+G(2d,p)
 ****
 1  2  14  15  16  17  18  19  20  21  22  24  25  26  27 0
 3-21G
 ****
 35  36  37  38  39  40  41  42  43  44  45 0
 3-21G
 ****


