%nproc=1
%NoSave
%Mem=1900MB
#P OB98/GEN NMR

erre ene a

0 1
  C       26.251     420.895    -416.239
  O       26.646     420.472    -417.533
  P       28.143     419.911    -417.712
  C       29.437     421.534    -419.326
  O       29.057     421.197    -418.004
  C       28.312     422.316    -420.013
  O       28.024     423.517    -419.269
  C       28.635     422.782    -421.431
  O       28.535     421.719    -422.366
  C       27.609     423.893    -421.615
  O       26.332     423.337    -421.955
  C       27.561     424.516    -420.207
  N       28.346     425.746    -420.094
  C       27.681     426.931    -420.409
  O       26.503     426.966    -420.764
  N       28.429     428.077    -420.321
  C       29.757     428.146    -420.018
  O       30.390     429.200    -419.995
  C       30.414     426.863    -419.724
  C       29.690     425.743    -419.778
  O       28.010     419.176    -419.126
  O       28.581     419.041    -416.581
  H       27.313     419.574    -419.678
  H       25.666     424.027    -421.751
  H       27.963     428.951    -420.521
  H       31.471     426.880    -419.493
  H       30.162     424.788    -419.578
  H       26.528     424.743    -419.928
  H       27.885     424.593    -422.411
  H       29.650     423.204    -421.460
  H       27.413     421.688    -420.011
  H       29.643     420.619    -419.886
  H       30.352     422.138    -419.286
  P       29.131     422.004    -423.837
  C       27.332     422.601    -425.638
  O       28.113     423.021    -424.544
  O       28.857     420.603    -424.561
  O       30.566     422.429    -423.833
  H       27.986     420.230    -424.350
  H       26.479     423.278    -425.741
  H       26.957     421.580    -425.490
  H       27.928     422.639    -426.554
  H       25.239     421.241    -416.270
  H       26.889     421.689    -415.913
  H       26.327     420.074    -415.557

 3  4  5  6  7  8  9  10  11  12  13  24  28  29  30  31  32 0
 6-311+G(2d,p)
 ****
 33  34 0
 6-311+G(2d,p)
 ****
 1  2  14  15  16  17  18  19  20  21  22  23  25  26  27 0
 3-21G
 ****
 35  36  37  38  39  40  41  42  43  44  45 0
 3-21G
 ****


