%nproc=1
%NoSave
%Mem=1900MB
#P OB98/GEN NMR

erre ene a

0 1
  C      228.890    -365.875     934.804
  O      230.013    -365.099     935.230
  P      231.459    -365.758     935.530
  C      232.474    -365.004     933.267
  O      232.156    -366.113     934.115
  C      233.985    -364.754     933.206
  O      234.656    -365.898     932.606
  C      234.403    -363.550     932.355
  O      234.217    -362.350     933.087
  C      235.856    -363.904     932.035
  O      236.705    -363.562     933.139
  C      235.777    -365.414     931.860
  N      238.391    -366.835     927.667
  C      238.793    -366.537     928.943
  N      238.033    -366.161     929.995
  C      236.719    -366.135     929.655
  C      236.170    -366.431     928.419
  C      237.063    -366.783     927.394
  N      236.650    -367.085     926.109
  N      234.798    -366.270     928.446
  C      234.547    -365.924     929.695
  N      235.665    -365.834     930.459
  O      231.424    -366.890     936.498
  O      232.354    -364.544     936.087
  H      236.597    -362.604     933.306
  H      233.038    -364.902     936.679
  H      239.867    -366.605     929.114
  H      233.544    -365.716     930.089
  H      236.671    -365.920     932.273
  H      236.225    -363.364     931.146
  H      233.804    -363.536     931.430
  H      234.360    -364.659     934.229
  H      231.973    -364.101     933.689
  H      237.357    -367.302     925.406
  H      235.665    -366.991     925.874
  H      232.063    -365.199     932.273
  P      234.199    -360.945     932.319
  C      232.011    -360.127     933.383
  O      232.674    -360.493     932.179
  O      235.006    -360.884     931.061
  O      234.760    -359.914     933.428
  H      235.226    -359.181     932.966
  H      231.697    -361.029     933.911
  H      231.130    -359.519     933.122
  H      232.658    -359.542     934.040
  H      228.045    -365.234     934.667
  H      228.663    -366.611     935.547
  H      229.122    -366.361     933.880

 3  4  5  6  7  8  9  10  11  12  22  25  29  30  31  32 0
 6-311+G(2d,p)
 ****
 33  36  37 0
 6-311+G(2d,p)
 ****
 1  2  13  14  15  16  17  18  19  20  21  23  24  26 0
 3-21G
 ****
 27  28  34  35  38  39  40  41  42  43  44  45  46  47  48 0
 3-21G
 ****


