%nproc=1
%NoSave
%Mem=1900MB
#P OB98/GEN NMR

erre ene a

0 1
  C      310.559     253.819     782.574
  O      311.960     253.673     782.703
  H      310.225     254.580     783.284
  H      310.058     252.876     782.808
  H      310.297     254.143     781.567
  P      312.730     252.686     781.699
  C      313.371     252.743     779.210
  O      312.976     253.505     780.342
  C      313.296     253.586     777.941
  O      311.958     254.135     777.819
  C      314.289     254.752     777.917
  O      314.774     254.907     776.585
  C      313.431     255.949     778.291
  O      313.957     257.174     777.772
  C      312.078     255.567     777.692
  N      310.430     260.034     779.381
  C      311.557     259.716     778.653
  N      312.392     260.738     778.347
  N      311.854     258.506     778.259
  C      310.922     257.587     778.623
  C      309.767     257.773     779.343
  C      309.458     259.120     779.787
  O      308.483     259.457     780.439
  N      309.104     256.585     779.528
  C      309.856     255.682     778.930
  N      310.980     256.241     778.373
  O      312.095     251.344     781.507
  O      314.195     252.560     782.326
  H      314.848     257.294     778.170
  H      314.289     251.728     782.826
  H      310.253     260.981     779.665
  H      309.644     254.625     778.874
  H      312.001     255.831     776.631
  H      313.370     256.037     779.383
  H      312.226     261.700     778.601
  H      315.126     254.615     778.607
  H      313.214     260.534     777.792
  H      313.445     252.928     777.075
  H      312.694     251.884     779.125
  H      314.390     252.376     779.360
  P      315.951     253.936     776.076
  C      315.870     251.598     774.996
  O      315.373     252.439     776.039
  O      317.263     254.104     776.756
  O      316.057     254.308     774.510
  H      316.979     254.156     774.222
  H      315.417     250.631     775.071
  H      316.932     251.503     775.090
  H      315.633     252.030     774.046

 6  7  8  9  10  11  12  13  14  15  26  29  33  34 0
 6-311+G(2d,p)
 ****
 36  38  39  40  41 0
 6-311+G(2d,p)
 ****
 1  2  3  4  5  16  17  18  19  20  21  22  23  24  25 0
 3-21G
 ****
 27  28  30  31  32  35  37  42  43  44  45  46  47 0
 3-21G
 ****
 48  49 0
 3-21G
 ****


