%nproc=1
%NoSave
%Mem=1900MB
#P OB98/GEN NMR

erre ene a

0 1
  C      -76.795      80.777     214.692
  O      -76.739      79.381     214.455
  P      -76.352      78.835     213.003
  C      -78.801      78.493     212.289
  O      -77.575      79.166     212.016
  C      -79.755      78.622     211.104
  O      -80.132      80.002     210.912
  C      -79.156      78.173     209.776
  O      -79.126      76.763     209.686
  C      -80.094      78.856     208.782
  O      -81.298      78.082     208.610
  C      -80.401      80.182     209.499
  N      -79.500      83.071     205.389
  C      -80.219      81.936     205.556
  N      -80.381      81.200     206.680
  C      -79.680      81.737     207.696
  C      -78.875      82.869     207.673
  C      -78.813      83.570     206.450
  N      -78.137      84.761     206.285
  N      -78.299      83.084     208.908
  C      -78.741      82.087     209.661
  N      -79.622      81.292     208.990
  O      -75.870      77.421     212.960
  O      -75.207      79.839     212.507
  H      -81.714      77.997     209.489
  H      -74.384      79.340     212.344
  H      -80.737      81.578     204.672
  H      -78.462      81.918     210.695
  H      -81.461      80.451     209.413
  H      -79.639      78.980     207.794
  H      -78.148      78.591     209.659
  H      -80.664      78.050     211.330
  H      -79.256      78.942     213.181
  H      -78.282      85.246     205.419
  H      -77.889      85.285     207.118
  H      -78.599      77.433     212.495
  P      -77.993      76.041     208.805
  C      -79.274      76.377     206.606
  O      -78.088      76.659     207.328
  O      -77.972      74.547     208.870
  O      -76.628      76.670     209.365
  H      -75.914      76.006     209.297
  H      -79.225      75.357     206.208
  H      -79.354      77.081     205.770
  H      -80.158      76.482     207.240
  H      -77.068      80.955     215.711
  H      -77.523      81.220     214.045
  H      -75.836      81.210     214.498

 3  4  5  6  7  8  9  10  11  12  22  25  29  30  31  32 0
 6-311+G(2d,p)
 ****
 33  36  37 0
 6-311+G(2d,p)
 ****
 1  2  13  14  15  16  17  18  19  20  21  23  24  26 0
 3-21G
 ****
 27  28  34  35  38  39  40  41  42  43  44  45  46  47  48 0
 3-21G
 ****


