%nproc=1
%NoSave
%Mem=1900MB
#P OB98/GEN NMR

erre ene a

0 1
  C       44.941    -384.527     379.590
  O       43.627    -385.002     379.355
  H       45.067    -383.574     379.070
  H       45.674    -385.242     379.204
  H       45.100    -384.371     380.661
  P       43.238    -386.395     380.052
  C       44.675    -388.010     378.595
  O       43.381    -387.514     378.914
  C       44.644    -389.537     378.479
  O       44.343    -390.097     379.798
  C       43.574    -390.077     377.517
  O       44.043    -391.324     376.985
  C       42.409    -390.330     378.459
  O       41.425    -391.126     377.842
  C       43.168    -390.921     379.644
  N       41.453    -393.876     383.451
  C       42.258    -394.142     382.399
  N       42.678    -393.302     381.433
  C       42.205    -392.059     381.642
  C       41.381    -391.637     382.671
  C       40.998    -392.610     383.610
  N       40.170    -392.342     384.676
  N       41.100    -390.284     382.545
  C       41.741    -389.907     381.460
  N       42.415    -390.944     380.876
  O       41.656    -386.266     380.265
  O       43.953    -386.696     381.327
  H       41.821    -391.954     377.487
  H       41.468    -385.950     381.169
  H       42.605    -395.170     382.322
  H       41.743    -388.901     381.048
  H       43.502    -391.947     379.441
  H       41.922    -389.387     378.738
  H       43.348    -389.388     376.693
  H       45.646    -389.897     378.209
  H       45.371    -387.709     379.387
  H       45.005    -387.580     377.642
  H       39.926    -393.101     385.294
  H       39.808    -391.408     384.800
  P       45.002    -391.312     375.691
  C       43.367    -390.750     373.722
  O       44.129    -391.732     374.407
  O       45.891    -392.629     375.928
  O       45.863    -390.108     375.533
  H       46.761    -392.510     375.494
  H       42.854    -391.205     372.901
  H       44.019    -389.984     373.356
  H       42.654    -390.320     374.393

 6  7  8  9  10  11  12  13  14  15  25  28  32  33  34  35 0
 6-311+G(2d,p)
 ****
 36  37  40 0
 6-311+G(2d,p)
 ****
 1  2  3  4  5  16  17  18  19  20  21  22  23  24 0
 3-21G
 ****
 26  27  29  30  31  38  39 41  42  43  44  45  46  47  48 0
 3-21G
 ****


