%nproc=1
%NoSave
%Mem=1900MB
#P OB98/GEN NMR

erre ene a

0 1
  C      753.051     233.767     109.714
  O      754.321     234.093     110.239
  H      752.556     233.071     110.400
  H      753.147     233.286     108.739
  H      752.431     234.664     109.630
  P      755.269     235.077     109.393
  C      756.778     233.265     108.341
  O      756.689     234.335     109.272
  C      758.244     233.009     107.974
  O      758.357     231.846     107.128
  C      758.913     234.152     107.225
  O      759.336     235.168     108.124
  C      760.074     233.414     106.586
  O      761.110     233.185     107.564
  C      759.422     232.085     106.179
  N      759.531     229.795     101.643
  C      760.355     229.617     102.738
  N      761.370     228.736     102.606
  N      760.200     230.273     103.868
  C      759.191     231.166     103.839
  C      758.322     231.439     102.806
  C      758.459     230.664     101.591
  O      757.730     230.759     100.599
  N      757.484     232.477     103.113
  C      757.809     232.803     104.354
  N      758.852     232.045     104.836
  O      755.358     236.484     109.891
  O      754.686     234.996     107.903
  H      761.761     232.592     107.152
  H      754.024     235.698     107.751
  H      759.703     229.260     100.796
  H      757.331     233.578     104.933
  H      760.123     231.244     106.246
  H      760.534     233.981     105.762
  H      761.630     228.328     101.718
  H      758.261     234.555     106.439
  H      762.013     228.647     103.381
  H      758.788     232.779     108.907
  H      756.212     233.552     107.456
  H      756.342     232.352     108.764
  P      759.042     236.722     107.843
  C      761.442     237.104     106.939
  O      760.488     237.448     107.915
  O      757.994     237.334     108.689
  O      758.740     236.783     106.270
  H      757.790     236.586     106.054
  H      762.342     237.657     107.110
  H      761.059     237.337     105.968
  H      761.651     236.056     106.998

 6  7  8  9  10  11  12  13  14  15  26  29  33  34 0
 6-311+G(2d,p)
 ****
 36  38  39  40  41 0
 6-311+G(2d,p)
 ****
 1  2  3  4  5  16  17  18  19  20  21  22  23  24  25 0
 3-21G
 ****
 27  28  30  31  32  35  37  42  43  44  45  46  47 0
 3-21G
 ****
 48  49 0
 3-21G
 ****


