%nproc=1
%NoSave
%Mem=1900MB
#P OB98/GEN NMR

erre ene a

0 1
  C       -5.266     -15.062      18.678
  O       -4.420     -16.124      18.230
  P       -4.419     -16.409      16.650
  C       -6.231     -16.571      14.800
  O       -5.938     -16.640      16.188
  C       -7.315     -17.583      14.425
  O       -6.817     -18.933      14.387
  C       -8.488     -17.599      15.397
  O       -9.360     -16.516      15.123
  C       -9.111     -18.958      15.109
  O      -10.000     -18.897      13.975
  C       -7.886     -19.829      14.783
  N       -9.066     -23.737      17.787
  C       -9.851     -23.047      16.881
  N      -11.122     -23.477      16.739
  N       -9.424     -22.031      16.179
  C       -8.131     -21.713      16.423
  C       -7.248     -22.337      17.273
  C       -7.733     -23.459      18.048
  O       -7.072     -24.115      18.844
  N       -6.001     -21.768      17.206
  C       -6.169     -20.725      16.414
  N       -7.426     -20.684      15.862
  O       -3.754     -17.861      16.539
  O       -3.658     -15.395      15.863
  H      -10.437     -19.761      13.867
  H       -2.867     -17.788      16.140
  H       -9.449     -24.507      18.308
  H       -5.412     -19.990      16.188
  H       -8.081     -20.492      13.931
  H       -9.709     -19.318      15.949
  H      -11.515     -24.254      17.246
  H       -8.122     -17.564      16.430
  H      -11.711     -22.989      16.074
  H       -7.671     -17.325      13.419
  H       -5.329     -16.764      14.217
  H       -6.549     -15.551      14.559
  P       -9.594     -15.432      16.279
  C      -11.371     -15.048      18.130
  O      -10.842     -15.921      17.151
  O      -10.155     -14.163      15.478
  O       -8.368     -15.079      17.054
  H       -9.718     -13.353      15.803
  H      -12.438     -15.254      18.246
  H      -11.240     -13.999      17.851
  H      -10.869     -15.232      19.084
  H       -5.185     -14.965      19.741
  H       -6.280     -15.279      18.416
  H       -4.966     -14.146      18.213

 3  4  5  6  7  8  9  10  11  12  23  26  30  31 0
 6-311+G(2d,p)
 ****
 33  35  36  37  38 0
 6-311+G(2d,p)
 ****
 1  2  13  14  15  16  17  18  19  20  21  22  24  25 0
 3-21G
 ****
 27  28  29  32  34  39  40  41  42  43  44  45  46  47  48  49 0
 3-21G
 ****


