%nproc=1
%NoSave
%Mem=1900MB
#P OB98/GEN NMR

erre ene a

0 1
  C       15.121    -124.179     114.225
  O       14.870    -123.381     113.080
  H       14.268    -124.845     114.382
  H       15.233    -123.535     115.100
  H       16.023    -124.782     114.084
  P       16.116    -122.575     112.472
  C       16.321    -120.648     114.202
  O       15.914    -121.037     112.896
  C       15.970    -119.182     114.451
  O       16.431    -118.768     115.760
  C       16.588    -118.210     113.448
  O       15.808    -118.117     112.263
  C       16.525    -116.911     114.242
  O       15.175    -116.394     114.229
  C       16.885    -117.386     115.657
  N       20.319    -116.556     119.302
  C       18.937    -116.451     119.338
  N       18.400    -116.068     120.521
  N       18.156    -116.702     118.319
  C       18.842    -117.057     117.199
  C       20.203    -117.185     117.036
  C       21.052    -116.922     118.178
  O       22.278    -117.016     118.194
  N       20.520    -117.562     115.762
  C       19.355    -117.642     115.144
  N       18.302    -117.335     115.974
  O       15.803    -122.576     110.900
  O       17.457    -123.158     112.760
  H       14.607    -117.065     114.651
  H       16.368    -123.245     110.467
  H       20.874    -116.342     120.114
  H       19.220    -117.916     114.107
  H       16.363    -116.816     116.432
  H       17.168    -116.133     113.829
  H       18.944    -115.838     121.337
  H       17.637    -118.453     113.227
  H       17.389    -115.985     120.570
  H       14.876    -119.095     114.453
  H       17.403    -120.783     114.290
  H       15.815    -121.282     114.934
  P       16.564    -117.759     110.888
  C       16.794    -115.220     111.342
  O       16.208    -116.229     110.542
  O       15.731    -118.593     109.802
  O       18.013    -118.110     110.845
  H       16.281    -119.318     109.448
  H       16.470    -114.260     110.999
  H       17.860    -115.283     111.271
  H       16.495    -115.354     112.361

 6  7  8  9  10  11  12  13  14  15  26  29  33  34 0
 6-311+G(2d,p)
 ****
 36  38  39  40  41 0
 6-311+G(2d,p)
 ****
 1  2  3  4  5  16  17  18  19  20  21  22  23  24  25 0
 3-21G
 ****
 27  28  30  31  32  35  37  42  43  44  45  46  47 0
 3-21G
 ****
 48  49 0
 3-21G
 ****


