%nproc=1
%NoSave
%Mem=1900MB
#P OB98/GEN NMR

erre ene a

0 1
  C      143.174      25.432      27.794
  O      144.032      25.184      28.891
  H      142.201      25.752      28.178
  H      143.035      24.530      27.194
  H      143.584      26.233      27.173
  P      145.426      24.439      28.606
  C      144.350      22.139      29.061
  O      145.025      22.961      28.112
  C      144.216      20.704      28.553
  O      143.416      20.659      27.352
  C      145.536      20.055      28.166
  O      146.415      19.820      29.241
  C      145.069      18.883      27.316
  O      144.680      17.759      28.104
  C      143.832      19.490      26.610
  N      144.090      19.806      25.210
  C      143.536      18.937      24.277
  O      142.880      17.939      24.581
  N      143.787      19.232      22.965
  C      144.559      20.259      22.509
  O      144.764      20.458      21.317
  C      145.153      21.122      23.543
  C      144.893      20.861      24.828
  O      146.413      24.455      29.735
  O      145.965      25.132      27.269
  H      144.304      17.099      27.490
  H      146.924      24.936      27.127
  H      143.381      18.622      22.272
  H      145.781      21.939      23.220
  H      145.318      21.486      25.611
  H      142.990      18.785      26.648
  H      145.844      18.543      26.625
  H      146.066      20.736      27.489
  H      143.695      20.120      29.321
  H      143.351      22.562      29.216
  H      144.893      22.155      30.011
  P      148.002      19.773      29.092
  C      147.692      17.180      29.222
  O      148.434      18.278      28.706
  O      148.794      20.485      30.142
  O      148.223      20.557      27.698
  H      149.069      21.044      27.773
  H      148.116      16.264      28.866
  H      146.675      17.253      28.897
  H      147.727      17.197      30.291

 6  7  8  9  10  11  12  13  14  15  16  26  31  32  33  34  35 0
 6-311+G(2d,p)
 ****
 36  37 0
 6-311+G(2d,p)
 ****
 1  2  3  4  5  17  18  19  20  21  22  23  24  25 0
 3-21G
 ****
 27  28  29  30  38  39  40  41  42  43  44  45 0
 3-21G
 ****


