%nproc=1
%NoSave
%Mem=1900MB
#P OB98/GEN NMR

erre ene a

0 1
  C       43.846    -374.466    -206.821
  O       44.466    -373.372    -206.140
  P       44.666    -373.549    -204.555
  C       42.353    -372.932    -203.536
  O       43.250    -373.969    -203.923
  C       41.464    -373.389    -202.380
  O       40.378    -374.227    -202.818
  C       42.212    -374.197    -201.326
  O       42.932    -373.327    -200.470
  C       41.073    -374.921    -200.623
  O       40.466    -374.085    -199.611
  C       40.074    -375.177    -201.765
  N       38.947    -380.043    -200.888
  C       38.911    -378.958    -200.032
  N       38.490    -379.195    -198.776
  N       39.256    -377.746    -200.387
  C       39.654    -377.651    -201.676
  C       39.704    -378.650    -202.624
  C       39.325    -379.985    -202.223
  O       39.319    -380.974    -202.944
  N       40.103    -378.161    -203.846
  C       40.409    -376.896    -203.598
  N       40.096    -376.527    -202.312
  O       44.887    -372.052    -204.043
  O       45.808    -374.433    -204.194
  H       40.232    -373.227    -200.007
  H       45.814    -371.931    -203.759
  H       38.681    -380.954    -200.560
  H       40.837    -376.215    -204.316
  H       39.042    -374.996    -201.449
  H       41.415    -375.820    -200.111
  H       38.208    -380.107    -198.433
  H       42.876    -374.923    -201.806
  H       38.451    -378.410    -198.131
  H       41.033    -372.488    -201.920
  H       41.734    -372.643    -204.388
  H       42.936    -372.050    -203.259
  P       44.534    -373.385    -200.515
  C       44.525    -375.223    -198.676
  O       44.975    -374.820    -199.954
  O       44.969    -372.371    -199.360
  O       45.130    -373.003    -201.828
  H       45.701    -371.806    -199.680
  H       44.440    -376.311    -198.656
  H       43.551    -374.787    -198.437
  H       45.253    -374.906    -197.921
  H       43.766    -374.238    -207.863
  H       42.870    -374.631    -206.416
  H       44.439    -375.348    -206.694

 3  4  5  6  7  8  9  10  11  12  23  26  30  31 0
 6-311+G(2d,p)
 ****
 33  35  36  37  38 0
 6-311+G(2d,p)
 ****
 1  2  13  14  15  16  17  18  19  20  21  22  24  25 0
 3-21G
 ****
 27  28  29  32  34  39  40  41  42  43  44  45  46  47  48  49 0
 3-21G
 ****


