%nproc=1
%NoSave
%Mem=1900MB
#P OB98/GEN NMR

erre ene a

0 1
  C      709.904    -899.392    -257.158
  O      711.033    -898.822    -257.807
  P      710.771    -897.862    -259.077
  C      710.314    -895.722    -257.666
  O      709.810    -896.672    -258.584
  C      710.172    -894.312    -258.241
  O      710.761    -894.292    -259.561
  C      708.724    -893.812    -258.369
  O      708.752    -892.392    -258.157
  C      708.398    -894.102    -259.821
  O      707.319    -893.312    -260.297
  C      709.729    -893.822    -260.476
  N      709.688    -893.262    -265.506
  C      709.402    -892.352    -264.496
  N      709.142    -891.112    -264.899
  N      709.410    -892.642    -263.238
  C      709.701    -893.942    -262.976
  C      709.973    -894.952    -263.875
  C      710.005    -894.602    -265.271
  O      710.336    -895.372    -266.181
  N      710.143    -896.142    -263.235
  C      710.084    -895.852    -261.959
  N      709.866    -894.512    -261.757
  O      709.810    -898.762    -259.989
  O      712.005    -897.382    -259.804
  H      707.657    -892.402    -260.460
  H      710.333    -899.252    -260.660
  H      709.703    -892.992    -266.475
  H      710.190    -896.542    -261.141
  H      709.899    -892.752    -260.665
  H      708.121    -895.162    -259.928
  H      709.156    -890.792    -265.883
  H      708.039    -894.282    -257.658
  H      708.959    -890.402    -264.211
  H      710.759    -893.632    -257.608
  H      711.381    -895.922    -257.505
  H      709.795    -895.822    -256.691
  P      707.352    -891.622    -258.072
  C      706.680    -892.602    -255.766
  O      706.383    -892.492    -257.151
  O      706.718    -891.822    -259.528
  O      707.466    -890.162    -257.727
  H      706.192    -891.042    -259.770
  H      705.761    -892.832    -255.202
  H      707.083    -891.672    -255.362
  H      707.423    -893.372    -255.614
  H      710.232    -900.000    -256.341
  H      709.359    -899.994    -257.854
  H      709.272    -898.611    -256.791

 3  4  5  6  7  8  9  10  11  12  23  26  30  31 0
 6-311+G(2d,p)
 ****
 33  35  36  37  38 0
 6-311+G(2d,p)
 ****
 1  2  13  14  15  16  17  18  19  20  21  22  24  25 0
 3-21G
 ****
 27  28  29  32  34  39  40  41  42  43  44  45  46  47  48  49 0
 3-21G
 ****


