%nproc=1
%NoSave
%Mem=1900MB
#P OB98/GEN NMR

erre ene a

0 1
  C        0.979      -9.607     -16.149
  O        1.217     -10.885     -16.715
  P        0.857     -12.218     -15.911
  C       -1.669     -12.575     -16.531
  O       -0.702     -12.199     -15.575
  C       -2.630     -13.587     -15.894
  O       -1.926     -14.802     -15.565
  C       -3.252     -13.040     -14.612
  O       -4.512     -12.447     -14.882
  C       -3.339     -14.273     -13.734
  O       -4.504     -15.049     -14.070
  C       -2.053     -15.034     -14.136
  N       -0.784     -14.641     -13.495
  C        0.383     -15.337     -13.795
  O        0.438     -16.262     -14.598
  N        1.503     -14.943     -13.107
  C        1.568     -13.917     -12.209
  O        2.498     -13.734     -11.432
  C        0.382     -13.059     -12.144
  C       -0.727     -13.465     -12.760
  O        1.544     -11.978     -14.486
  O        1.310     -13.492     -16.544
  H       -4.304     -15.523     -14.897
  H        2.403     -12.438     -14.437
  H        2.321     -15.535     -13.215
  H        0.435     -12.154     -11.554
  H       -1.631     -12.863     -12.694
  H       -2.172     -16.112     -13.983
  H       -3.447     -14.003     -12.685
  H       -2.573     -12.319     -14.138
  H       -3.413     -13.838     -16.621
  H       -1.179     -13.013     -17.408
  H       -2.221     -11.695     -16.875
  P       -5.201     -11.518     -13.776
  C       -4.294      -9.406     -14.911
  O       -4.310     -10.185     -13.732
  O       -5.452     -12.165     -12.455
  O       -6.564     -11.057     -14.482
  H       -7.302     -11.622     -14.176
  H       -3.809      -8.452     -14.695
  H       -5.313      -9.217     -15.261
  H       -3.726      -9.924     -15.687
  H        1.285      -8.849     -16.839
  H        1.537      -9.509     -15.241
  H       -0.065      -9.498     -15.940

 3  4  5  6  7  8  9  10  11  12  13  23  28  29  30  31  32 0
 6-311+G(2d,p)
 ****
 33  34 0
 6-311+G(2d,p)
 ****
 1  2  14  15  16  17  18  19  20  21  22  24  25  26  27 0
 3-21G
 ****
 35  36  37  38  39  40  41  42  43  44  45 0
 3-21G
 ****


