%nproc=1
%NoSave
%Mem=1900MB
#P OB98/GEN NMR

erre ene a

0 1
  C      796.967    -892.630     258.293
  O      798.221    -893.170     258.725
  P      798.308    -893.940     260.115
  C      799.392    -896.090     261.036
  O      799.195    -895.260     259.896
  C      800.379    -897.230     260.696
  O      799.818    -898.060     259.624
  C      801.725    -896.780     260.216
  O      802.522    -896.350     261.300
  C      802.222    -898.050     259.513
  O      802.754    -898.980     260.481
  C      800.922    -898.590     258.898
  N      803.126    -899.220     254.347
  C      803.536    -899.510     255.589
  N      802.907    -899.260     256.759
  C      801.736    -898.650     256.555
  C      801.189    -898.270     255.337
  C      801.920    -898.620     254.192
  N      801.451    -898.390     252.896
  N      799.955    -897.650     255.536
  C      799.794    -897.650     256.821
  N      800.796    -898.290     257.484
  O      797.006    -894.160     260.826
  O      799.271    -893.000     261.012
  H      802.072    -899.150     261.144
  H      798.809    -892.700     261.798
  H      804.508    -900.000     255.661
  H      798.953    -897.210     257.361
  H      800.853    -899.700     259.019
  H      802.998    -897.840     258.794
  H      801.609    -895.980     259.452
  H      800.439    -897.890     261.598
  H      798.425    -896.500     261.357
  H      802.010    -898.800     252.138
  H      800.471    -898.200     252.767
  H      799.807    -895.480     261.848
  P      803.742    -895.340     261.058
  C      804.905    -893.450     262.348
  O      803.825    -894.370     262.322
  O      803.724    -894.630     259.735
  O      805.040    -896.250     261.206
  H      805.743    -895.940     260.635
  H      805.821    -893.980     262.648
  H      804.663    -892.680     263.069
  H      805.052    -893.000     261.359
  H      797.093    -892.150     257.345
  H      796.620    -891.916     259.011
  H      796.251    -893.420     258.201

 3  4  5  6  7  8  9  10  11  12  22  25  29  30  31  32 0
 6-311+G(2d,p)
 ****
 33  36  37 0
 6-311+G(2d,p)
 ****
 1  2  13  14  15  16  17  18  19  20  21  23  24  26 0
 3-21G
 ****
 27  28  34  35  38  39  40  41  42  43  44  45  46  47  48 0
 3-21G
 ****


