%nproc=1
%NoSave
%Mem=1900MB
#P OB98/GEN NMR

erre ene a

0 1
  C     -552.348     313.849      98.714
  O     -553.328     313.288      99.569
  H     -552.084     314.843      99.090
  H     -552.746     313.948      97.700
  H     -551.454     313.221      98.706
  P     -553.894     311.847      99.151
  C     -552.318     310.467     100.670
  O     -552.685     310.812      99.344
  C     -551.929     308.991     100.750
  O     -552.896     308.174     100.052
  C     -550.568     308.663     100.153
  O     -549.533     308.912     101.091
  C     -550.731     307.185      99.837
  O     -550.552     306.378     101.018
  C     -552.187     307.117      99.352
  N     -552.814     304.655      94.984
  C     -552.596     304.169      96.258
  N     -552.496     302.829      96.387
  N     -552.459     304.930      97.318
  C     -552.523     306.253      97.030
  C     -552.741     306.856      95.814
  C     -552.939     306.000      94.664
  O     -553.221     306.367      93.523
  N     -552.755     308.226      95.932
  C     -552.517     308.447      97.211
  N     -552.366     307.277      97.917
  O     -554.041     311.953      97.556
  O     -555.190     311.459      99.783
  H     -550.665     305.444     100.788
  H     -554.845     311.473      97.283
  H     -552.944     304.021      94.215
  H     -552.453     309.421      97.674
  H     -552.666     306.170      99.621
  H     -549.984     306.844      99.116
  H     -552.295     302.228      95.602
  H     -550.403     309.218      99.222
  H     -552.257     302.479      97.309
  H     -551.965     308.699     101.807
  H     -553.164     310.655     101.336
  H     -551.469     311.086     100.984
  P     -548.083     309.304     100.528
  C     -548.286     311.889     100.401
  O     -548.225     310.660      99.682
  O     -547.824     308.189      99.407
  O     -546.999     309.295     101.554
  H     -547.178     307.536      99.734
  H     -548.379     312.702      99.711
  H     -547.392     312.010     100.976
  H     -549.132     311.878     101.055

 6  7  8  9  10  11  12  13  14  15  26  29  33  34 0
 6-311+G(2d,p)
 ****
 36  38  39  40  41 0
 6-311+G(2d,p)
 ****
 1  2  3  4  5  16  17  18  19  20  21  22  23  24  25 0
 3-21G
 ****
 27  28  30  31  32  35  37  42  43  44  45  46  47 0
 3-21G
 ****
 48  49 0
 3-21G
 ****


