%nproc=1
%NoSave
%Mem=1900MB
#P OB98/GEN NMR

erre ene a

0 1
  C     -299.833    -353.115     314.931
  O     -299.113    -352.471     315.958
  H     -300.823    -352.658     314.854
  H     -299.958    -354.175     315.170
  H     -299.319    -353.009     313.972
  P     -297.571    -352.875     316.146
  C     -297.713    -353.680     318.611
  O     -297.236    -352.694     317.707
  C     -298.331    -353.016     319.843
  O     -299.758    -352.860     319.624
  C     -298.140    -353.820     321.133
  O     -297.901    -352.906     322.207
  C     -299.481    -354.500     321.336
  O     -299.732    -354.825     322.703
  C     -300.444    -353.471     320.732
  N     -301.698    -354.094     320.316
  C     -302.877    -353.454     320.707
  O     -302.829    -352.423     321.381
  N     -304.082    -354.025     320.382
  C     -304.107    -355.177     319.791
  N     -305.332    -355.706     319.521
  C     -302.886    -355.925     319.419
  C     -301.730    -355.325     319.701
  O     -296.783    -351.663     315.461
  O     -297.183    -354.199     315.579
  H     -299.886    -353.988     323.195
  H     -295.944    -351.965     315.065
  H     -302.959    -356.893     318.952
  H     -300.784    -355.796     319.471
  H     -300.670    -352.680     321.460
  H     -299.509    -355.432     320.759
  H     -297.316    -354.537     321.078
  H     -297.910    -352.010     319.943
  H     -306.142    -355.174     319.810
  H     -296.875    -354.308     318.929
  H     -305.470    -356.620     319.107
  H     -298.453    -354.310     318.105
  P     -296.427    -352.905     322.838
  C     -296.771    -353.421     325.362
  O     -296.537    -352.432     324.367
  O     -295.714    -351.672     322.109
  O     -295.682    -354.182     322.622
  H     -295.052    -351.999     321.473
  H     -296.819    -352.955     326.324
  H     -295.973    -354.134     325.351
  H     -297.697    -353.918     325.160

 6  7  8  9  10  11  12  13  14  15  16  26  30  31  32  33  35 0
 6-311+G(2d,p)
 ****
 37  38 0
 6-311+G(2d,p)
 ****
 1  2  3  4  5  17  18  19  20  21  22  23  24  25 0
 3-21G
 ****
 27  28  29  34  36  39  40  41  42  43  44  45  46 0
 3-21G
 ****


