%nproc=1
%NoSave
%Mem=1900MB
#P OB98/GEN NMR

erre ene a

0 1
  C      -81.039    -106.187    -159.117
  O      -79.858    -105.724    -158.493
  H      -80.766    -106.895    -159.904
  H      -81.578    -105.349    -159.570
  H      -81.680    -106.694    -158.391
  P      -80.042    -104.700    -157.273
  C      -79.502    -102.640    -158.770
  O      -79.149    -103.413    -157.628
  C      -78.337    -101.739    -159.164
  O      -78.163    -100.709    -158.165
  C      -76.993    -102.457    -159.251
  O      -76.852    -103.174    -160.467
  C      -76.025    -101.289    -159.119
  O      -75.819    -100.630    -160.378
  C      -76.763    -100.352    -158.155
  N      -72.846     -99.072    -155.153
  C      -73.125     -98.790    -156.447
  N      -74.204     -99.156    -157.170
  C      -75.054     -99.878    -156.418
  C      -74.901    -100.248    -155.091
  C      -73.733     -99.809    -154.445
  N      -73.433    -100.123    -153.141
  N      -75.964    -101.027    -154.682
  C      -76.748    -101.119    -155.737
  N      -76.239    -100.436    -156.805
  O      -79.233    -105.408    -156.085
  O      -81.455    -104.409    -156.893
  H      -76.676    -100.232    -160.627
  H      -79.848    -105.931    -155.538
  H      -72.378     -98.199    -156.970
  H      -77.680    -101.672    -155.780
  H      -76.696     -99.303    -158.463
  H      -75.048    -101.622    -158.763
  H      -76.864    -103.124    -158.390
  H      -78.578    -101.252    -160.119
  H      -80.373    -102.019    -158.529
  H      -79.763    -103.318    -159.590
  H      -72.566     -99.795    -152.750
  H      -74.038    -100.761    -152.640
  P      -76.326    -104.686    -160.406
  C      -74.610    -104.607    -162.357
  O      -75.855    -105.095    -161.883
  O      -77.667    -105.530    -160.188
  O      -75.319    -104.951    -159.340
  H      -77.765    -105.778    -159.249
  H      -74.441    -104.966    -163.351
  H      -73.825    -104.950    -161.716
  H      -74.625    -103.537    -162.362

 6  7  8  9  10  11  12  13  14  15  25  28  32  33  34  35 0
 6-311+G(2d,p)
 ****
 36  37  40 0
 6-311+G(2d,p)
 ****
 1  2  3  4  5  16  17  18  19  20  21  22  23  24 0
 3-21G
 ****
 26  27  29  30  31  38  39 41  42  43  44  45  46  47  48 0
 3-21G
 ****


