%nproc=1
%NoSave
%Mem=1900MB
#P OB98/GEN NMR

erre ene a

0 1
  C      -48.353      60.726    -102.435
  O      -49.124      59.815    -101.678
  H      -48.067      61.563    -101.792
  H      -48.940      61.111    -103.273
  H      -47.447      60.239    -102.806
  P      -49.666      58.520    -102.455
  C      -51.608      58.744    -100.752
  O      -51.219      58.385    -102.069
  C      -53.123      58.645    -100.600
  O      -53.790      59.520    -101.536
  C      -53.689      57.249    -100.831
  O      -53.573      56.450     -99.666
  C      -55.134      57.569    -101.183
  O      -55.924      57.811    -100.002
  C      -54.986      58.851    -102.014
  N      -57.633      58.372    -106.286
  C      -58.053      58.667    -105.006
  N      -59.386      58.804    -104.829
  N      -57.246      58.806    -103.989
  C      -55.945      58.609    -104.310
  C      -55.402      58.329    -105.543
  C      -56.306      58.209    -106.665
  O      -55.991      58.014    -107.835
  N      -54.038      58.218    -105.470
  C      -53.760      58.393    -104.192
  N      -54.887      58.617    -103.445
  O      -48.987      57.300    -101.669
  O      -49.357      58.472    -103.913
  H      -55.415      58.362     -99.384
  H      -48.838      56.563    -102.290
  H      -58.302      58.296    -107.031
  H      -52.769      58.366    -103.763
  H      -55.826      59.539    -101.864
  H      -55.612      56.744    -101.713
  H      -60.050      58.391    -105.469
  H      -53.202      56.770    -101.690
  H      -59.704      58.998    -103.889
  H      -53.375      58.998     -99.591
  H      -51.295      59.775    -100.557
  H      -51.114      58.080    -100.036
  P      -52.603      55.172     -99.731
  C      -53.268      54.618     -97.278
  O      -53.127      54.149     -98.612
  O      -51.231      55.717     -99.115
  O      -52.419      54.599    -101.095
  H      -50.497      55.119     -99.352
  H      -53.624      53.823     -96.656
  H      -53.967      55.428     -97.257
  H      -52.319      54.956     -96.917

 6  7  8  9  10  11  12  13  14  15  26  29  33  34 0
 6-311+G(2d,p)
 ****
 36  38  39  40  41 0
 6-311+G(2d,p)
 ****
 1  2  3  4  5  16  17  18  19  20  21  22  23  24  25 0
 3-21G
 ****
 27  28  30  31  32  35  37  42  43  44  45  46  47 0
 3-21G
 ****
 48  49 0
 3-21G
 ****


