%nproc=1
%NoSave
%Mem=1900MB
#P OB98/GEN NMR

erre ene a

0 1
  C       54.658      43.187    -145.495
  O       54.909      44.084    -146.586
  P       56.362      44.695    -146.909
  C       55.424      47.085    -146.665
  O       56.460      46.181    -146.309
  C       55.608      48.458    -146.002
  O       55.553      48.324    -144.546
  C       56.940      49.157    -146.343
  O       56.648      50.552    -146.477
  C       57.776      48.878    -145.099
  O       58.886      49.742    -144.955
  C       56.693      49.041    -144.023
  N       57.051      48.544    -142.695
  C       57.013      49.451    -141.628
  O       56.746      50.640    -141.802
  N       57.307      48.992    -140.364
  C       57.615      47.744    -140.180
  N       57.881      47.352    -138.902
  C       57.685      46.759    -141.276
  C       57.391      47.222    -142.490
  O       56.736      44.615    -148.355
  O       57.390      43.849    -146.014
  H       58.225      43.733    -146.507
  H       59.557      49.285    -144.416
  H       57.939      45.729    -141.079
  H       57.393      46.555    -143.348
  H       56.404      50.097    -143.952
  H       58.149      47.851    -145.154
  H       57.395      48.802    -147.274
  H       54.760      49.093    -146.289
  H       57.814      48.059    -138.174
  H       54.466      46.665    -146.339
  H       58.124      46.407    -138.645
  H       55.399      47.191    -147.758
  P       56.775      51.256    -147.915
  C       59.028      52.513    -147.518
  O       58.336      51.487    -148.206
  O       56.281      52.750    -147.596
  O       55.956      50.666    -149.019
  H       55.933      53.156    -148.414
  H       59.991      52.122    -147.177
  H       58.472      52.882    -146.652
  H       59.210      53.345    -148.211
  H       53.622      42.919    -145.484
  H       54.912      43.667    -144.573
  H       55.253      42.306    -145.614

 3  4  5  6  7  8  9  10  11  12  13  24  27  28  29  30  32 0
 6-311+G(2d,p)
 ****
 34  35 0
 6-311+G(2d,p)
 ****
 1  2  14  15  16  17  18  19  20  21  22  23  25  26 0
 3-21G
 ****
 31  33  36  37  38  39  40  41  42  43  44  45  46 0
 3-21G
 ****


