%nproc=1
%NoSave
%Mem=1900MB
#P OB98/GEN NMR

erre ene a

0 1
  C       11.000      44.506    -132.055
  O        9.992      45.121    -131.279
  H       11.660      43.941    -131.390
  H       11.591      45.265    -132.574
  H       10.557      43.818    -132.780
  P        8.888      45.970    -132.075
  C        7.128      44.059    -132.180
  O        8.013      44.907    -132.900
  C        5.824      43.895    -132.956
  O        5.005      42.891    -132.314
  C        4.965      45.153    -133.010
  O        5.430      46.071    -133.984
  C        3.599      44.564    -133.334
  O        3.445      44.330    -134.740
  C        3.626      43.227    -132.582
  N       -0.846      42.130    -130.399
  C       -0.366      41.897    -131.640
  N        0.850      42.206    -132.138
  C        1.603      42.810    -131.204
  C        1.247      43.119    -129.903
  C       -0.046      42.749    -129.501
  N       -0.548      43.018    -128.249
  N        2.276      43.781    -129.263
  C        3.240      43.861    -130.159
  N        2.879      43.283    -131.342
  O        9.751      46.709    -133.205
  O        8.106      46.933    -131.247
  H        2.488      44.224    -134.902
  H        9.995      47.602    -132.897
  H       -1.049      41.400    -132.323
  H        4.203      44.331    -130.001
  H        3.204      42.409    -133.177
  H        2.795      45.233    -133.027
  H        4.922      45.625    -132.021
  H        6.063      43.543    -133.968
  H        6.912      44.507    -131.204
  H        7.612      43.089    -132.028
  H       -1.494      42.744    -128.037
  H        0.002      43.573    -127.608
  P        4.631      47.444    -134.183
  C        4.893      48.001    -131.657
  O        4.014      47.859    -132.761
  O        3.352      47.003    -135.038
  O        5.407      48.525    -134.856
  H        3.481      47.220    -135.980
  H        4.333      48.279    -130.789
  H        5.617      48.759    -131.872
  H        5.393      47.072    -131.477

 6  7  8  9  10  11  12  13  14  15  25  28  32  33  34  35 0
 6-311+G(2d,p)
 ****
 36  37  40 0
 6-311+G(2d,p)
 ****
 1  2  3  4  5  16  17  18  19  20  21  22  23  24 0
 3-21G
 ****
 26  27  29  30  31  38  39 41  42  43  44  45  46  47  48 0
 3-21G
 ****


