%nproc=1
%NoSave
%Mem=1900MB
#P OB98/GEN NMR

erre ene a

0 1
  C      715.795    1407.840     818.492
  O      714.731    1407.439     817.663
  P      713.917    1408.634     816.883
  C      715.300    1408.387     814.685
  O      714.017    1408.249     815.326
  C      715.555    1407.217     813.741
  O      715.555    1405.977     814.518
  C      714.537    1407.006     812.633
  O      714.777    1407.870     811.536
  C      714.791    1405.555     812.273
  O      715.967    1405.454     811.442
  C      715.067    1404.911     813.656
  N      713.388    1400.995     816.492
  C      714.586    1401.283     815.979
  N      714.984    1402.339     815.228
  C      713.916    1403.134     814.936
  C      712.590    1402.944     815.374
  C      712.355    1401.828     816.159
  N      711.089    1401.533     816.711
  N      711.788    1403.943     814.875
  C      712.592    1404.733     814.230
  N      713.894    1404.299     814.232
  O      714.891    1409.886     817.042
  O      712.561    1408.890     817.406
  H      716.237    1404.517     811.463
  H      714.365    1410.712     816.961
  H      715.390    1400.591     816.216
  H      712.305    1405.632     813.735
  H      715.858    1404.166     813.596
  H      713.954    1405.115     811.731
  H      713.516    1407.124     813.021
  H      716.584    1407.343     813.346
  H      716.082    1408.462     815.438
  H      711.074    1400.829     817.401
  H      710.366    1402.250     816.641
  H      715.277    1409.347     814.102
  P      713.784    1407.738     810.281
  C      712.131    1409.539     811.198
  O      713.073    1409.179     810.171
  O      712.623    1406.753     810.831
  O      714.435    1407.209     809.055
  H      712.217    1406.292     810.099
  H      711.990    1410.642     811.152
  H      712.542    1409.303     812.195
  H      711.195    1409.023     811.046
  H      716.242    1406.978     818.941
  H      715.425    1408.489     819.258
  H      716.527    1408.358     817.908

 3  4  5  6  7  8  9  10  11  12  22  25  29  30  31  32 0
 6-311+G(2d,p)
 ****
 33  36  37 0
 6-311+G(2d,p)
 ****
 1  2  13  14  15  16  17  18  19  20  21  23  24  26 0
 3-21G
 ****
 27  28  34  35  38  39  40  41  42  43  44  45  46  47  48 0
 3-21G
 ****


