%nproc=1
%NoSave
%Mem=1900MB
#P OB98/GEN NMR

erre ene a

0 1
  C        3.726     -40.675     -98.486
  O        2.993     -39.985     -99.482
  P        1.396     -40.157     -99.487
  C       -0.167     -42.196     -99.891
  O        1.098     -41.595    -100.131
  C       -0.536     -43.126    -101.043
  O       -0.618     -42.396    -102.285
  C        0.476     -44.235    -101.297
  O        0.314     -45.329    -100.409
  C        0.111     -44.644    -102.715
  O       -1.038     -45.512    -102.697
  C       -0.246     -43.297    -103.356
  N        1.981     -43.094    -107.894
  C        0.759     -43.626    -107.533
  N        0.060     -44.243    -108.510
  N        0.264     -43.558    -106.325
  C        1.079     -42.918    -105.449
  C        2.309     -42.348    -105.689
  C        2.848     -42.442    -107.028
  O        3.946     -42.038    -107.396
  N        2.827     -41.783    -104.555
  C        1.916     -42.007    -103.629
  N        0.857     -42.730    -104.112
  O        0.918     -39.139    -100.627
  O        0.736     -39.885     -98.178
  H       -1.705     -45.078    -102.127
  H       -0.036     -38.959    -100.533
  H        2.320     -43.178    -108.838
  H        1.988     -41.682    -102.599
  H       -1.107     -43.379    -104.026
  H        0.914     -45.190    -103.220
  H        0.413     -44.384    -109.445
  H        1.503     -43.849    -101.283
  H       -0.810     -44.697    -108.260
  H       -1.527     -43.549    -100.834
  H       -0.925     -41.414     -99.795
  H       -0.129     -42.755     -98.951
  P        1.654     -45.964     -99.792
  C        3.779     -46.952    -100.913
  O        2.400     -46.662    -101.025
  O        1.105     -47.192     -98.928
  O        2.469     -45.015     -98.979
  H        1.722     -47.399     -98.201
  H        4.057     -47.649    -101.708
  H        4.007     -47.413     -99.949
  H        4.362     -46.034    -101.030
  H        4.769     -40.469     -98.604
  H        3.557     -41.727     -98.583
  H        3.405     -40.350     -97.518

 3  4  5  6  7  8  9  10  11  12  23  26  30  31 0
 6-311+G(2d,p)
 ****
 33  35  36  37  38 0
 6-311+G(2d,p)
 ****
 1  2  13  14  15  16  17  18  19  20  21  22  24  25 0
 3-21G
 ****
 27  28  29  32  34  39  40  41  42  43  44  45  46  47  48  49 0
 3-21G
 ****


