%nproc=1
%NoSave
%Mem=1900MB
#P OB98/GEN NMR

erre ene a

0 1
  C      105.392      68.996    -309.425
  O      103.993      68.690    -309.452
  P      103.322      68.261    -308.051
  C      101.164      67.249    -309.066
  O      101.728      68.254    -308.230
  C      100.155      67.837    -310.064
  O       98.948      68.275    -309.389
  C      100.700      69.037    -310.849
  O      100.122      68.988    -312.155
  C      100.121      70.224    -310.097
  O      100.107      71.387    -310.914
  C       98.738      69.664    -309.707
  N       98.119      70.394    -308.605
  C       97.183      71.377    -308.935
  O       96.955      71.651    -310.117
  N       96.548      72.060    -307.925
  C       96.867      71.823    -306.690
  N       96.209      72.527    -305.733
  C       97.896      70.831    -306.297
  C       98.464      70.162    -307.286
  O      103.594      69.527    -307.107
  O      103.906      67.016    -307.468
  H      101.037      71.613    -311.144
  H      103.977      69.241    -306.260
  H       98.141      70.675    -305.253
  H       99.230      69.422    -307.102
  H       98.049      69.711    -310.567
  H      100.717      70.434    -309.198
  H      101.787      69.049    -310.923
  H       99.870      67.044    -310.764
  H       95.507      73.190    -306.040
  H      100.664      66.501    -308.450
  H       96.378      72.425    -304.748
  H      101.970      66.724    -309.584
  P      100.913      68.215    -313.308
  C      100.314      70.148    -314.897
  O      100.265      68.744    -314.680
  O      100.257      66.747    -313.213
  O      102.399      68.159    -313.239
  H      100.715      66.143    -313.827
  H       99.960      70.358    -315.908
  H      101.342      70.513    -314.800
  H       99.662      70.660    -314.182
  H      105.717      69.265    -310.408
  H      105.938      68.139    -309.090
  H      105.566      69.813    -308.756

 3  4  5  6  7  8  9  10  11  12  13  21  23  27  28  29  30  32 0
 6-311+G(2d,p)
 ****
 34  35 0
 6-311+G(2d,p)
 ****
 1  2  14  15  16  17  18  19  20  22  24  25  26 0
 3-21G
 ****
 31  33  36  37  38  39  40  41  42  43  44  45  46 0
 3-21G
 ****


