%nproc=1
%NoSave
%Mem=1900MB
#P OB98/GEN NMR

erre ene a

0 1
  C       97.074    -735.389     -39.784
  O       96.788    -735.397     -41.163
  P       95.331    -735.816     -41.684
  C       94.510    -733.369     -41.292
  O       94.298    -734.753     -41.076
  C       93.245    -732.696     -41.850
  O       92.159    -732.950     -40.906
  C       93.325    -731.176     -41.976
  O       92.290    -730.737     -42.861
  C       93.019    -730.726     -40.570
  O       92.588    -729.359     -40.517
  C       91.959    -731.766     -40.098
  N       92.120    -732.094     -38.673
  C       91.636    -731.150     -37.759
  O       91.032    -730.131     -38.093
  N       91.947    -731.375     -36.429
  C       92.710    -732.411     -35.981
  O       93.227    -732.441     -34.866
  C       92.992    -733.477     -36.942
  C       92.707    -733.259     -38.241
  O       95.037    -737.149     -40.865
  O       95.222    -736.038     -43.159
  H       92.488    -729.138     -39.559
  H       95.256    -737.942     -41.398
  H       91.714    -730.626     -35.793
  H       93.467    -734.388     -36.594
  H       92.953    -734.019     -38.989
  H       90.939    -731.389     -40.248
  H       93.915    -730.811     -39.959
  H       94.304    -730.803     -42.325
  H       92.963    -733.156     -42.801
  H       95.347    -733.238     -41.995
  H       94.786    -732.878     -40.368
  P       92.446    -729.295     -43.547
  C       93.200    -730.570     -45.642
  O       93.476    -729.498     -44.774
  O       92.754    -728.151     -42.638
  O       91.038    -729.098     -44.306
  H       90.907    -728.152     -44.505
  H       93.586    -730.307     -46.652
  H       92.126    -730.769     -45.723
  H       93.720    -731.462     -45.298
  H       98.089    -735.085     -39.632
  H       96.932    -736.372     -39.385
  H       96.418    -734.704     -39.288

 3  4  5  6  7  8  9  10  11  12  13  23  28  29  30  31  32 0
 6-311+G(2d,p)
 ****
 33  34 0
 6-311+G(2d,p)
 ****
 1  2  14  15  16  17  18  19  20  21  22  24  25  26  27 0
 3-21G
 ****
 35  36  37  38  39  40  41  42  43  44  45 0
 3-21G
 ****


