%nproc=1
%NoSave
%Mem=1900MB
#P OB98/GEN NMR

erre ene a

0 1
  C      501.605     514.314    -590.306
  O      501.471     513.066    -589.612
  P      502.381     512.810    -588.315
  C      500.697     513.076    -586.377
  O      501.450     512.170    -587.177
  C      499.243     512.610    -586.253
  O      498.492     512.872    -587.459
  C      499.103     511.123    -585.983
  O      499.441     510.813    -584.633
  C      497.636     510.887    -586.351
  O      496.778     511.255    -585.263
  C      497.450     511.889    -587.534
  N      497.414     511.232    -588.830
  C      496.213     510.630    -589.188
  O      495.254     510.618    -588.406
  N      496.115     510.024    -590.424
  C      497.148     510.009    -591.217
  N      496.993     509.388    -592.423
  C      498.437     510.623    -590.876
  C      498.509     511.203    -589.667
  O      503.227     513.957    -587.866
  O      503.285     511.550    -588.762
  H      495.872     511.069    -585.570
  H      504.144     511.602    -588.304
  H      499.262     510.594    -591.562
  H      499.422     511.670    -589.337
  H      496.503     512.429    -587.414
  H      497.437     509.851    -586.601
  H      499.755     510.570    -586.676
  H      498.778     513.185    -585.427
  H      496.092     508.971    -592.632
  H      500.739     514.071    -586.804
  H      497.716     509.368    -593.123
  H      501.178     513.137    -585.385
  P      499.639     509.265    -584.267
  C      502.085     509.350    -583.399
  O      500.714     509.190    -583.080
  O      500.461     508.688    -585.529
  O      498.379     508.506    -584.056
  H      500.198     507.771    -585.700
  H      502.630     509.586    -582.469
  H      502.232     510.183    -584.090
  H      502.488     508.426    -583.827
  H      500.936     514.331    -591.141
  H      502.611     514.423    -590.652
  H      501.367     515.119    -589.642

 3  4  5  6  7  8  9  10  11  12  13  23  27  28  29  30  32 0
 6-311+G(2d,p)
 ****
 34  35 0
 6-311+G(2d,p)
 ****
 1  2  14  15  16  17  18  19  20  21  22  24  25  26 0
 3-21G
 ****
 31  33  36  37  38  39  40  41  42  43  44  45  46 0
 3-21G
 ****


