%nproc=1
%NoSave
%Mem=1900MB
#P OB98/GEN NMR

erre ene a

0 1
  C      714.013     130.804      86.577
  O      714.473     130.454      87.867
  H      713.829     131.882      86.547
  H      713.074     130.282      86.374
  H      714.755     130.552      85.814
  P      715.175     129.024      88.032
  C      717.445     130.173      87.501
  O      716.560     129.095      87.221
  C      718.876     129.804      87.109
  O      719.347     128.752      88.004
  C      719.022     129.288      85.661
  O      720.265     129.765      85.128
  C      719.120     127.789      85.850
  O      719.772     127.147      84.759
  C      719.896     127.715      87.165
  N      721.878     123.104      87.111
  C      722.316     124.279      86.530
  N      723.428     124.202      85.764
  N      721.715     125.426      86.680
  C      720.628     125.368      87.493
  C      720.089     124.268      88.122
  C      720.754     122.994      87.930
  O      720.396     121.920      88.404
  N      718.944     124.609      88.805
  C      718.785     125.901      88.561
  N      719.782     126.403      87.772
  O      714.258     128.074      87.128
  O      715.284     128.524      89.432
  H      719.458     127.561      83.930
  H      713.582     127.639      87.685
  H      722.366     122.242      86.946
  H      717.966     126.506      88.921
  H      720.968     127.914      87.031
  H      718.116     127.355      85.961
  H      723.963     123.360      85.616
  H      718.200     129.586      85.003
  H      723.784     125.067      85.364
  H      719.519     130.675      87.275
  H      717.412     130.389      88.575
  H      717.111     131.061      86.952
  P      720.224     130.625      83.782
  C      722.344     132.084      84.180
  O      720.930     132.045      84.061
  O      718.677     131.013      83.640
  O      720.719     129.896      82.577
  H      718.430     131.042      82.696
  H      722.659     133.090      84.363
  H      722.788     131.731      83.273
  H      722.651     131.461      84.994

 6  7  8  9  10  11  12  13  14  15  26  29  33  34 0
 6-311+G(2d,p)
 ****
 36  38  39  40  41 0
 6-311+G(2d,p)
 ****
 1  2  3  4  5  16  17  18  19  20  21  22  23  24  25 0
 3-21G
 ****
 27  28  30  31  32  35  37  42  43  44  45  46  47 0
 3-21G
 ****
 48  49 0
 3-21G
 ****


