%nproc=1
%NoSave
%Mem=1900MB
#P OB98/GEN NMR

erre ene a

0 1
  C     -187.281    -338.772    -226.343
  O     -187.052    -340.035    -225.716
  P     -187.103    -340.047    -224.109
  C     -184.569    -339.722    -223.659
  O     -185.876    -339.160    -223.577
  C     -183.494    -338.629    -223.613
  O     -182.187    -339.210    -223.318
  C     -183.357    -337.840    -224.928
  O     -183.034    -336.490    -224.563
  C     -182.172    -338.525    -225.584
  O     -181.601    -337.765    -226.641
  C     -181.290    -338.753    -224.368
  N     -176.412    -339.278    -225.777
  C     -177.212    -338.192    -225.654
  N     -178.502    -338.133    -225.280
  C     -178.963    -339.366    -224.996
  C     -178.276    -340.567    -225.064
  C     -176.931    -340.495    -225.474
  N     -176.118    -341.597    -225.612
  N     -179.101    -341.627    -224.716
  C     -180.284    -341.068    -224.514
  N     -180.225    -339.706    -224.585
  O     -186.692    -341.549    -223.733
  O     -188.435    -339.666    -223.552
  H     -180.921    -338.295    -227.099
  H     -187.481    -342.081    -223.533
  H     -176.740    -337.241    -225.906
  H     -181.198    -341.602    -224.312
  H     -180.822    -337.821    -224.011
  H     -182.499    -339.484    -226.011
  H     -184.268    -337.842    -225.536
  H     -183.740    -337.944    -222.789
  H     -184.465    -340.290    -224.589
  H     -175.171    -341.447    -225.921
  H     -176.470    -342.522    -225.415
  H     -184.436    -340.447    -222.843
  P     -184.184    -335.556    -223.952
  C     -185.098    -334.844    -226.246
  O     -185.350    -335.579    -225.063
  O     -183.547    -334.106    -224.198
  O     -184.579    -335.827    -222.539
  H     -183.242    -334.004    -225.119
  H     -185.927    -335.007    -226.948
  H     -184.170    -335.181    -226.712
  H     -185.035    -333.774    -226.022
  H     -187.223    -338.886    -227.405
  H     -186.539    -338.073    -226.018
  H     -188.252    -338.412    -226.075

 3  4  5  6  7  8  9  10  11  12  22  25  29  30  31  32 0
 6-311+G(2d,p)
 ****
 33  36  37 0
 6-311+G(2d,p)
 ****
 1  2  13  14  15  16  17  18  19  20  21  23  24  26 0
 3-21G
 ****
 27  28  34  35  38  39  40  41  42  43  44  45  46  47  48 0
 3-21G
 ****


