%nproc=1
%NoSave
%Mem=1900MB
#P OB98/GEN NMR

erre ene a

0 1
  C       14.323     -41.570     -10.674
  O       15.010     -41.886     -11.887
  P       15.149     -40.706     -12.967
  C       17.571     -41.411     -13.567
  O       16.264     -41.127     -14.044
  C       18.425     -42.114     -14.628
  O       17.894     -43.430     -14.934
  C       18.516     -41.346     -15.948
  O       19.815     -41.585     -16.496
  C       17.486     -42.036     -16.819
  O       17.735     -41.801     -18.202
  C       17.654     -43.493     -16.356
  N       16.503     -44.334     -16.674
  C       16.684     -45.318     -17.649
  O       17.757     -45.404     -18.251
  N       15.640     -46.154     -17.951
  C       14.493     -45.985     -17.368
  N       13.493     -46.842     -17.714
  C       14.237     -44.921     -16.377
  C       15.278     -44.146     -16.080
  O       15.846     -39.526     -12.140
  O       13.842     -40.269     -13.546
  H       18.701     -41.883     -18.355
  H       15.354     -38.694     -12.268
  H       13.261     -44.807     -15.932
  H       15.191     -43.341     -15.363
  H       18.538     -43.944     -16.824
  H       16.479     -41.671     -16.578
  H       18.356     -40.269     -15.838
  H       19.432     -42.256     -14.215
  H       13.710     -47.565     -18.391
  H       17.512     -42.045     -12.680
  H       12.565     -46.803     -17.324
  H       18.041     -40.477     -13.241
  P       20.876     -40.386     -16.490
  C       22.709     -41.945     -15.588
  O       22.304     -41.102     -16.651
  O       20.898     -39.983     -14.936
  O       20.617     -39.199     -17.354
  H       21.466     -39.203     -14.806
  H       23.629     -42.458     -15.880
  H       21.939     -42.693     -15.380
  H       22.908     -41.350     -14.693
  H       14.298     -42.434     -10.043
  H       13.323     -41.264     -10.900
  H       14.834     -40.776     -10.171

 3  4  5  6  7  8  9  10  11  12  13  21  23  27  28  29  30  32 0
 6-311+G(2d,p)
 ****
 34  35 0
 6-311+G(2d,p)
 ****
 1  2  14  15  16  17  18  19  20  22  24  25  26 0
 3-21G
 ****
 31  33  36  37  38  39  40  41  42  43  44  45  46 0
 3-21G
 ****


