%nproc=1
%NoSave
%Mem=1900MB
#P OB98/GEN NMR

erre ene a

0 1
  C       22.933     -58.909      10.095
  O       22.903     -59.704      11.264
  H       22.331     -58.013      10.265
  H       22.507     -59.465       9.257
  H       23.957     -58.607       9.861
  P       23.890     -60.968      11.300
  C       21.953     -62.524      12.051
  O       22.972     -62.269      11.097
  C       21.359     -63.912      11.831
  O       20.512     -63.917      10.661
  C       22.396     -65.009      11.611
  O       22.922     -65.492      12.840
  C       21.544     -66.064      10.926
  O       20.731     -66.743      11.904
  C       20.663     -65.208      10.006
  N       20.693     -66.875       5.220
  C       20.006     -67.350       6.321
  N       19.221     -68.430       6.120
  N       20.083     -66.819       7.513
  C       20.915     -65.751       7.568
  C       21.647     -65.186       6.548
  C       21.546     -65.778       5.234
  O       22.114     -65.384       4.220
  N       22.366     -64.106       6.986
  C       22.087     -64.028       8.272
  N       21.215     -65.008       8.677
  O       24.319     -61.059      12.842
  O       25.082     -60.875      10.410
  H       20.387     -67.548      11.473
  H       25.249     -61.354      12.893
  H       20.606     -67.328       4.327
  H       22.485     -63.285       8.948
  H       19.660     -65.630       9.877
  H       22.140     -66.824      10.421
  H       19.155     -68.916       5.240
  H       23.189     -64.681      10.930
  H       18.682     -68.776       6.904
  H       20.725     -64.148      12.696
  H       21.164     -61.772      11.944
  H       22.380     -62.451      13.056
  P       24.179     -66.492      12.767
  C       23.134     -68.387      14.204
  O       23.564     -67.966      12.914
  O       24.908     -66.254      14.172
  O       25.094     -66.272      11.613
  H       25.848     -66.511      14.107
  H       22.750     -69.384      14.144
  H       22.366     -67.730      14.556
  H       23.962     -68.363      14.881

 6  7  8  9  10  11  12  13  14  15  26  29  33  34 0
 6-311+G(2d,p)
 ****
 36  38  39  40  41 0
 6-311+G(2d,p)
 ****
 1  2  3  4  5  16  17  18  19  20  21  22  23  24  25 0
 3-21G
 ****
 27  28  30  31  32  35  37  42  43  44  45  46  47 0
 3-21G
 ****
 48  49 0
 3-21G
 ****


