%nproc=1
%NoSave
%Mem=1900MB
#P OB98/GEN NMR

erre ene a

0 1
  C     -221.480    -148.839    -140.789
  O     -220.754    -148.490    -141.950
  H     -222.142    -149.683    -140.999
  H     -220.774    -149.134    -140.008
  H     -222.062    -147.985    -140.436
  P     -221.607    -148.015    -143.224
  C     -220.986    -150.026    -144.749
  O     -222.001    -149.359    -144.009
  C     -221.466    -150.263    -146.176
  O     -222.634    -151.114    -146.176
  C     -221.880    -148.996    -146.918
  O     -220.768    -148.297    -147.447
  C     -222.735    -149.589    -148.024
  O     -221.889    -150.154    -149.044
  C     -223.486    -150.700    -147.279
  N     -228.404    -149.867    -148.417
  C     -227.359    -150.268    -149.172
  N     -226.080    -150.461    -148.795
  C     -225.924    -150.198    -147.488
  C     -226.893    -149.774    -146.594
  C     -228.193    -149.615    -147.106
  N     -229.259    -149.192    -146.342
  N     -226.349    -149.572    -145.340
  C     -225.080    -149.902    -145.472
  N     -224.772    -150.276    -146.752
  O     -220.514    -147.342    -144.181
  O     -222.751    -147.103    -142.934
  H     -221.233    -150.710    -148.585
  H     -220.949    -146.744    -144.817
  H     -227.580    -150.456    -150.220
  H     -224.349    -149.886    -144.674
  H     -223.664    -151.581    -147.906
  H     -223.376    -148.852    -148.512
  H     -222.503    -148.347    -146.290
  H     -220.670    -150.789    -146.720
  H     -220.771    -150.987    -144.275
  H     -230.097    -148.933    -146.841
  H     -229.077    -148.860    -145.406
  H     -220.079    -149.415    -144.748
  P     -220.972    -146.742    -147.791
  C     -221.287    -146.680    -150.373
  O     -221.910    -146.700    -149.091
  O     -219.539    -146.302    -148.347
  O     -221.418    -145.900    -146.640
  H     -219.391    -145.347    -148.208
  H     -222.038    -146.653    -151.134
  H     -220.690    -147.560    -150.493
  H     -220.665    -145.813    -150.454

 6  7  8  9  10  11  12  13  14  15  25  28  32  33  34  35 0
 6-311+G(2d,p)
 ****
 36  39  40 0
 6-311+G(2d,p)
 ****
 1  2  3  4  5  16  17  18  19  20  21  22  23  24 0
 3-21G
 ****
 26  27  29  30  31  37  38  41  42  43  44  45  46  47 0
 3-21G
 ****
 48 0
 3-21G
 ****


