%nproc=1
%NoSave
%Mem=1900MB
#P OB98/GEN NMR

erre ene a

0 1
  C      154.619      82.981      84.626
  O      155.074      81.939      85.470
  P      154.180      81.431      86.694
  C      155.521      82.895      88.314
  O      154.226      82.565      87.833
  C      155.462      84.013      89.353
  O      155.115      85.259      88.689
  C      154.435      83.793      90.473
  O      154.986      84.372      91.659
  C      153.244      84.619      90.006
  O      152.361      84.958      91.063
  C      153.970      85.804      89.380
  N      150.864      89.825      88.799
  C      151.504      89.333      89.883
  N      152.293      88.241      89.962
  C      152.398      87.641      88.762
  C      151.779      88.011      87.579
  C      150.992      89.177      87.616
  N      150.363      89.713      86.518
  N      152.084      87.107      86.576
  C      152.869      86.216      87.147
  N      153.137      86.534      88.450
  O      154.486      80.052      87.181
  O      152.677      81.529      86.145
  H      151.587      85.419      90.684
  H      152.335      80.633      85.954
  H      151.371      89.891      90.803
  H      153.266      85.330      86.669
  H      154.335      86.512      90.134
  H      152.677      84.054      89.259
  H      154.176      82.740      90.640
  H      156.467      84.141      89.774
  H      156.124      83.225      87.462
  H      149.934      90.620      86.629
  H      150.651      89.407      85.590
  H      155.994      82.005      88.744
  P      154.905      83.580      93.052
  C      153.414      85.376      94.106
  O      153.526      84.011      93.742
  O      156.116      83.685      93.917
  O      154.630      82.065      92.598
  H      154.840      81.465      93.342
  H      153.931      85.539      95.054
  H      152.353      85.625      94.227
  H      153.846      86.023      93.341
  H      155.353      83.176      83.872
  H      154.460      83.866      85.206
  H      153.700      82.689      84.162

 3  4  5  6  7  8  9  10  11  12  22  25  29  30  31  32 0
 6-311+G(2d,p)
 ****
 33  36  37 0
 6-311+G(2d,p)
 ****
 1  2  13  14  15  16  17  18  19  20  21  23  24  26 0
 3-21G
 ****
 27  28  34  35  38  39  40  41  42  43  44  45  46  47  48 0
 3-21G
 ****


