%nproc=1
%NoSave
%Mem=1900MB
#P OB98/GEN NMR

erre ene a

0 1
  C      -97.477     313.007    -169.437
  O      -96.642     313.487    -170.473
  H      -98.517     313.206    -169.705
  H      -97.245     313.523    -168.501
  H      -97.343     311.929    -169.312
  P      -95.065     313.273    -170.274
  C      -94.669     315.114    -168.471
  O      -94.742     313.729    -168.771
  C      -93.369     315.430    -167.722
  O      -93.365     314.692    -166.464
  C      -92.097     315.021    -168.481
  O      -91.038     315.905    -168.079
  C      -91.839     313.630    -167.922
  O      -90.539     313.190    -168.240
  C      -92.166     313.884    -166.453
  N      -90.122     310.675    -163.039
  C      -89.677     311.841    -163.557
  N      -90.281     312.646    -164.452
  C      -91.483     312.152    -164.799
  C      -92.075     310.982    -164.349
  C      -91.337     310.221    -163.427
  N      -91.785     309.031    -162.903
  N      -93.314     310.807    -164.937
  C      -93.467     311.851    -165.724
  N      -92.384     312.686    -165.681
  O      -94.421     314.432    -171.170
  O      -94.548     311.925    -170.648
  H      -90.373     312.299    -167.867
  H      -94.191     314.082    -172.051
  H      -88.700     312.168    -163.207
  H      -94.329     312.048    -166.350
  H      -91.380     314.463    -165.955
  H      -92.532     312.902    -168.356
  H      -92.209     315.056    -169.568
  H      -93.355     316.496    -167.463
  H      -95.530     315.381    -167.849
  H      -94.703     315.691    -169.399
  H      -91.188     308.537    -162.259
  H      -92.681     308.672    -163.196
  P      -90.808     317.270    -168.894
  C      -89.393     316.039    -170.719
  O      -90.476     316.906    -170.423
  O      -89.375     317.745    -168.352
  O      -91.832     318.336    -168.682
  H      -89.311     318.716    -168.407
  H      -89.319     315.909    -171.779
  H      -89.559     315.090    -170.254
  H      -88.484     316.464    -170.348

 6  7  8  9  10  11  12  13  14  15  25  28  32  33  34  35 0
 6-311+G(2d,p)
 ****
 36  37  40 0
 6-311+G(2d,p)
 ****
 1  2  3  4  5  16  17  18  19  20  21  22  23  24 0
 3-21G
 ****
 26  27  29  30  31  38  39 41  42  43  44  45  46  47  48 0
 3-21G
 ****


