%nproc=1
%NoSave
%Mem=1900MB
#P OB98/GEN NMR

erre ene a

0 1
  C       -2.882     686.143    -123.798
  O       -3.586     687.071    -123.002
  H       -2.879     686.502    -124.834
  H       -3.382     685.173    -123.764
  H       -1.846     686.036    -123.464
  P       -3.368     687.050    -121.415
  C       -5.316     686.292    -119.902
  O       -4.289     685.887    -120.798
  C       -6.665     686.428    -120.613
  O       -6.778     685.419    -121.641
  C       -7.853     686.232    -119.663
  O       -8.268     687.407    -118.991
  C       -8.935     685.731    -120.615
  O       -9.668     686.821    -121.199
  C       -8.145     684.977    -121.692
  N      -10.956     680.724    -122.114
  C      -11.365     682.043    -122.203
  N      -12.688     682.246    -122.388
  N      -10.542     683.058    -122.101
  C       -9.268     682.701    -121.811
  C       -8.754     681.425    -121.679
  C       -9.655     680.309    -121.869
  O       -9.343     679.127    -121.814
  N       -7.420     681.455    -121.342
  C       -7.158     682.740    -121.196
  N       -8.226     683.532    -121.541
  O       -4.112     688.381    -120.921
  O       -1.937     687.043    -120.966
  H      -10.146     687.279    -120.481
  H       -3.660     688.735    -120.130
  H      -11.630     679.987    -122.230
  H       -6.202     683.141    -120.874
  H       -8.513     685.215    -122.696
  H       -9.667     685.114    -120.083
  H      -13.372     681.507    -122.391
  H       -7.642     685.432    -118.935
  H      -13.051     683.196    -122.276
  H       -6.708     687.407    -121.107
  H       -5.008     687.259    -119.495
  H       -5.397     685.585    -119.066
  P       -8.928     687.324    -117.534
  C      -11.516     687.793    -117.419
  O      -10.461     686.891    -117.692
  O       -9.024     688.860    -117.096
  O       -8.180     686.505    -116.532
  H       -8.282     689.098    -116.503
  H      -12.454     687.306    -117.586
  H      -11.435     688.642    -118.065
  H      -11.457     688.113    -116.400

 6  7  8  9  10  11  12  13  14  15  26  29  33  34 0
 6-311+G(2d,p)
 ****
 36  38  39  40  41 0
 6-311+G(2d,p)
 ****
 1  2  3  4  5  16  17  18  19  20  21  22  23  24  25 0
 3-21G
 ****
 27  28  30  31  32  35  37  42  43  44  45  46  47 0
 3-21G
 ****
 48  49 0
 3-21G
 ****


