%nproc=1
%NoSave
%Mem=1900MB
#P OB98/GEN NMR

erre ene a

0 1
  C       61.866     212.933     -89.098
  O       62.222     211.581     -89.302
  H       62.058     213.504     -90.010
  H       60.797     212.985     -88.870
  H       62.426     213.362     -88.263
  P       63.787     211.234     -89.353
  C       63.669     211.134     -91.944
  O       64.306     211.692     -90.805
  C       64.402     211.543     -93.220
  O       64.415     212.996     -93.301
  C       65.858     211.055     -93.296
  O       66.138     210.673     -94.647
  C       66.659     212.300     -92.960
  O       67.976     212.271     -93.502
  C       65.775     213.394     -93.551
  N       69.081     217.258     -93.565
  C       68.867     216.251     -94.438
  N       67.923     215.288     -94.385
  C       67.111     215.476     -93.331
  C       67.199     216.459     -92.360
  C       68.257     217.374     -92.497
  N       68.526     218.363     -91.576
  N       66.215     216.285     -91.407
  C       65.561     215.201     -91.783
  N       66.069     214.678     -92.939
  O       63.781     209.633     -89.444
  O       64.594     211.724     -88.199
  H       68.367     213.164     -93.430
  H       63.761     209.255     -88.546
  H       69.547     216.204     -95.285
  H       64.744     214.742     -91.245
  H       65.910     213.505     -94.635
  H       66.738     212.402     -91.871
  H       66.081     210.220     -92.622
  H       63.829     211.180     -94.082
  H       62.638     211.503     -91.994
  H       69.368     218.902     -91.702
  H       67.990     218.393     -90.721
  H       63.648     210.044     -91.849
  P       65.888     209.140     -95.047
  C       68.337     208.423     -94.530
  O       66.952     208.230     -94.269
  O       66.386     209.073     -96.567
  O       64.465     208.707     -94.914
  H       65.858     208.425     -97.067
  H       68.910     207.743     -93.935
  H       68.609     209.428     -94.285
  H       68.533     208.243     -95.566

 6  7  8  9  10  11  12  13  14  15  25  28  32  33  34  35 0
 6-311+G(2d,p)
 ****
 36  39  40 0
 6-311+G(2d,p)
 ****
 1  2  3  4  5  16  17  18  19  20  21  22  23  24 0
 3-21G
 ****
 26  27  29  30  31  37  38  41  42  43  44  45  46  47 0
 3-21G
 ****
 48 0
 3-21G
 ****


