%nproc=1
%NoSave
%Mem=1900MB
#P OB98/GEN NMR

erre ene a

0 1
  C      487.017      11.756     -50.488
  O      485.974      12.691     -50.820
  P      485.532      13.787     -49.732
  C      486.623      15.990     -50.626
  O      486.650      14.936     -49.675
  C      486.007      17.247     -50.005
  O      486.841      17.744     -48.931
  C      485.860      18.418     -50.966
  O      484.760      18.249     -51.844
  C      485.693      19.583     -50.002
  O      484.330      19.689     -49.552
  C      486.614      19.168     -48.837
  N      487.873      19.907     -48.826
  C      487.912      21.049     -48.031
  O      486.938      21.472     -47.411
  N      489.107      21.714     -48.004
  C      490.221      21.398     -48.727
  O      491.258      22.047     -48.673
  C      490.095      20.231     -49.609
  C      488.943      19.553     -49.621
  O      485.788      13.011     -48.352
  O      484.115      14.253     -49.820
  H      484.286      20.473     -48.972
  H      485.181      13.348     -47.667
  H      489.167      22.529     -47.411
  H      490.948      19.956     -50.220
  H      488.834      18.688     -50.267
  H      486.107      19.328     -47.877
  H      485.956      20.544     -50.454
  H      486.788      18.555     -51.532
  H      485.032      16.974     -49.576
  H      486.022      15.686     -51.486
  H      487.647      16.190     -50.967
  P      484.660      19.269     -53.083
  C      486.792      18.256     -54.203
  O      486.153      19.384     -53.653
  O      484.397      20.648     -52.315
  O      483.601      18.891     -54.066
  H      484.849      20.683     -51.454
  H      486.081      17.590     -54.702
  H      487.304      17.707     -53.408
  H      487.533      18.591     -54.936
  H      487.186      11.101     -51.317
  H      486.723      11.182     -49.634
  H      487.917      12.290     -50.266

 3  4  5  6  7  8  9  10  11  12  13  23  28  29  30  31  32 0
 6-311+G(2d,p)
 ****
 33  34 0
 6-311+G(2d,p)
 ****
 1  2  14  15  16  17  18  19  20  21  22  24  25  26 0
 3-21G
 ****
 27  35  36  37  38  39  40  41  42  43  44  45 0
 3-21G
 ****


