%nproc=1
%NoSave
%Mem=1900MB
#P OB98/GEN NMR

erre ene a

0 1
  C       31.838    -224.942     -57.140
  O       31.953    -224.021     -58.213
  H       32.336    -224.522     -56.262
  H       32.324    -225.889     -57.388
  H       30.786    -225.116     -56.901
  P       31.436    -224.478     -59.663
  C       31.679    -226.706     -60.959
  O       32.250    -225.812     -60.005
  C       32.763    -227.253     -61.881
  O       33.737    -227.999     -61.123
  C       32.227    -228.217     -62.926
  O       31.570    -227.525     -63.967
  C       33.497    -228.942     -63.325
  O       34.272    -228.166     -64.249
  C       34.225    -229.065     -61.965
  N       34.019    -230.365     -61.329
  C       34.783    -231.423     -61.845
  O       35.575    -231.229     -62.772
  N       34.609    -232.674     -61.306
  C       33.772    -232.849     -60.329
  N       33.640    -234.115     -59.847
  C       32.958    -231.760     -59.756
  C       33.131    -230.559     -60.300
  O       31.458    -223.443     -60.745
  O       29.957    -225.023     -59.379
  H       33.824    -228.253     -65.114
  H       29.308    -224.298     -59.458
  H       32.275    -231.952     -58.945
  H       32.572    -229.700     -59.932
  H       35.305    -228.906     -62.086
  H       33.283    -229.900     -63.800
  H       31.554    -228.945     -62.459
  H       33.281    -226.406     -62.353
  H       34.217    -234.835     -60.277
  H       30.944    -226.129     -61.539
  H       33.094    -234.357     -59.035
  H       31.160    -227.527     -60.453
  P       30.248    -228.131     -64.646
  C       29.693    -230.375     -65.789
  O       30.728    -229.482     -65.371
  O       29.475    -227.185     -65.501
  O       29.409    -228.670     -63.393
  H       29.002    -227.934     -62.883
  H       30.129    -231.233     -66.256
  H       29.052    -229.877     -66.486
  H       29.122    -230.683     -64.938

 6  7  8  9  10  11  12  13  14  15  16  26  30  31  32  33  35 0
 6-311+G(2d,p)
 ****
 37  38 0
 6-311+G(2d,p)
 ****
 1  2  3  4  5  17  18  19  20  21  22  23  24  25 0
 3-21G
 ****
 27  28  29  34  36  39  40  41  42  43  44  45  46 0
 3-21G
 ****


