%nproc=1
%NoSave
%Mem=1900MB
#P OB98/GEN NMR

erre ene a

0 1
  C     -113.334     168.201      60.965
  O     -114.415     168.202      60.025
  P     -114.787     166.899      59.164
  C     -113.863     165.764      57.053
  O     -114.164     167.004      57.686
  C     -113.102     165.929      55.731
  O     -113.974     166.445      54.687
  C     -111.890     166.867      55.793
  O     -110.949     166.364      54.843
  C     -112.479     168.183      55.312
  O     -111.503     169.115      54.871
  C     -113.414     167.684      54.214
  N     -114.546     172.011      51.715
  C     -113.457     171.212      51.679
  N     -113.245     170.058      52.343
  C     -114.318     169.722      53.079
  C     -115.503     170.431      53.208
  C     -115.592     171.638      52.490
  N     -116.680     172.480      52.558
  N     -116.365     169.790      54.075
  C     -115.705     168.720      54.470
  N     -114.464     168.631      53.894
  O     -116.239     166.545      59.185
  O     -113.932     165.724      59.840
  H     -111.028     168.725      54.116
  H     -114.503     164.940      59.959
  H     -112.647     171.548      51.037
  H     -116.065     167.991      55.186
  H     -112.862     167.468      53.291
  H     -113.035     168.651      56.136
  H     -111.443     166.939      56.787
  H     -112.789     164.929      55.404
  H     -114.802     165.233      56.866
  H     -116.614     173.365      52.081
  H     -117.412     172.283      53.226
  H     -113.269     165.153      57.744
  P     -109.423     166.081      55.236
  C     -107.151     167.159      54.761
  O     -108.547     167.216      54.525
  O     -108.957     164.684      54.987
  O     -109.330     166.460      56.791
  H     -108.540     166.043      57.181
  H     -106.932     167.536      55.765
  H     -106.638     167.782      54.024
  H     -106.781     166.130      54.671
  H     -113.261     169.164      61.426
  H     -112.419     167.979      60.456
  H     -113.514     167.460      61.715

 3  4  5  6  7  8  9  10  11  12  22  25  29  30  31  32 0
 6-311+G(2d,p)
 ****
 33  36  37 0
 6-311+G(2d,p)
 ****
 1  2  13  14  15  16  17  18  19  20  21  23  24  26 0
 3-21G
 ****
 27  28  34  35  38  39  40  41  42  43  44  45  46  47  48 0
 3-21G
 ****


