%nproc=1
%NoSave
%Mem=1900MB
#P OB98/GEN NMR

erre ene a

0 1
  C      735.545    -205.883    -125.345
  O      734.676    -206.779    -124.680
  H      736.486    -205.827    -124.786
  H      735.107    -204.883    -125.388
  H      735.760    -206.239    -126.354
  P      733.222    -207.026    -125.302
  C      733.710    -209.244    -126.534
  O      733.464    -207.851    -126.660
  C      732.561    -210.038    -127.145
  O      732.335    -209.628    -128.506
  C      732.803    -211.551    -127.176
  O      732.511    -212.123    -125.909
  C      731.814    -211.953    -128.259
  O      730.479    -211.967    -127.719
  C      731.975    -210.812    -129.273
  N      733.312    -213.582    -133.306
  C      732.202    -213.685    -132.488
  N      731.355    -214.700    -132.757
  N      731.964    -212.881    -131.482
  C      732.935    -211.960    -131.292
  C      734.083    -211.764    -132.023
  C      734.310    -212.627    -133.165
  O      735.273    -212.556    -133.938
  N      734.865    -210.771    -131.492
  C      734.168    -210.337    -130.461
  N      732.995    -211.035    -130.290
  O      732.356    -205.815    -125.476
  O      732.557    -208.106    -124.328
  H      730.522    -212.479    -126.888
  H      732.039    -207.672    -123.622
  H      733.447    -214.242    -134.052
  H      734.461    -209.520    -129.808
  H      731.042    -210.590    -129.799
  H      732.006    -212.951    -128.658
  H      731.631    -215.499    -133.314
  H      733.811    -211.791    -127.517
  H      730.562    -214.823    -132.134
  H      731.650    -209.795    -126.580
  H      733.809    -209.468    -125.467
  H      734.649    -209.507    -127.036
  P      733.476    -213.237    -125.271
  C      733.572    -212.348    -122.843
  O      734.253    -212.482    -124.087
  O      734.360    -213.936    -126.248
  O      732.494    -214.211    -124.474
  H      732.135    -214.949    -125.025
  H      734.198    -211.830    -122.147
  H      733.338    -213.319    -122.458
  H      732.668    -211.795    -122.989

 6  7  8  9  10  11  12  13  14  15  26  29  33  34 0
 6-311+G(2d,p)
 ****
 36  38  39  40  41 0
 6-311+G(2d,p)
 ****
 1  2  3  4  5  16  17  18  19  20  21  22  23  24  25 0
 3-21G
 ****
 27  28  30  31  32  35  37  42  43  44  45  46  47 0
 3-21G
 ****
 48  49 0
 3-21G
 ****


