%nproc=1
%NoSave
%Mem=1900MB
#P OB98/GEN NMR

erre ene a

0 1
  C      -51.621      10.809      49.978
  O      -50.678      10.483      48.953
  P      -49.767      11.682      48.404
  C      -50.058      13.660      46.746
  O      -50.574      12.431      47.239
  C      -50.540      13.896      45.314
  O      -49.751      13.158      44.356
  C      -51.978      13.449      45.079
  O      -52.896      14.365      45.651
  C      -52.011      13.384      43.556
  O      -52.173      14.700      42.999
  C      -50.606      12.854      43.227
  N      -51.142       9.231      39.655
  C      -51.233      10.577      39.596
  N      -51.079      11.473      40.594
  C      -50.790      10.852      41.749
  C      -50.661       9.489      41.962
  C      -50.854       8.657      40.846
  N      -50.776       7.284      40.910
  N      -50.362       9.229      43.283
  C      -50.335      10.412      43.863
  N      -50.576      11.425      42.974
  O      -48.590      10.926      47.627
  O      -49.235      12.571      49.479
  H      -53.084      14.992      43.204
  H      -47.757      11.000      48.128
  H      -51.461      10.991      38.618
  H      -50.147      10.585      44.915
  H      -50.172      13.345      42.349
  H      -52.825      12.764      43.170
  H      -52.137      12.449      45.501
  H      -50.443      14.967      45.095
  H      -48.966      13.649      46.771
  H      -51.006       6.758      40.082
  H      -50.649       6.842      41.809
  H      -50.380      14.468      47.411
  P      -53.621      13.940      47.016
  C      -55.207      12.016      47.634
  O      -54.551      12.702      46.583
  O      -54.677      15.123      47.203
  O      -52.705      13.692      48.166
  H      -55.144      15.325      46.372
  H      -55.827      11.228      47.201
  H      -55.845      12.704      48.194
  H      -54.470      11.561      48.301
  H      -52.163       9.930      50.257
  H      -52.303      11.548      49.613
  H      -51.102      11.193      50.831

 3  4  5  6  7  8  9  10  11  12  22  25  29  30  31  32 0
 6-311+G(2d,p)
 ****
 33  36  37 0
 6-311+G(2d,p)
 ****
 1  2  13  14  15  16  17  18  19  20  21  23  24  26 0
 3-21G
 ****
 27  28  34  35  38  39  40  41  42  43  44  45  46  47  48 0
 3-21G
 ****


