%nproc=1
%NoSave
%Mem=1900MB
#P OB98/GEN NMR

erre ene a

0 1
  C     -368.297    -978.524    -474.005
  O     -367.392    -979.577    -473.692
  P     -367.429    -980.896    -474.601
  C     -364.817    -981.241    -474.654
  O     -366.110    -981.717    -474.241
  C     -363.732    -981.787    -473.714
  O     -363.768    -981.068    -472.461
  C     -363.879    -983.241    -473.361
  O     -363.444    -984.098    -474.397
  C     -363.017    -983.321    -472.081
  O     -361.627    -983.416    -472.428
  C     -363.310    -981.972    -471.416
  N     -364.298    -982.041    -470.334
  C     -363.849    -982.539    -469.121
  O     -362.678    -982.884    -468.930
  N     -364.783    -982.657    -468.118
  C     -366.130    -982.361    -468.248
  O     -366.926    -982.511    -467.324
  C     -366.563    -981.894    -469.555
  C     -365.641    -981.767    -470.538
  O     -367.159    -980.267    -476.039
  O     -368.717    -981.646    -474.457
  H     -366.640    -979.448    -475.987
  H     -361.480    -984.328    -472.773
  H     -364.469    -982.970    -467.212
  H     -367.608    -981.671    -469.691
  H     -365.948    -981.413    -471.518
  H     -362.402    -981.535    -471.018
  H     -363.258    -984.199    -471.464
  H     -364.913    -983.484    -473.099
  H     -362.748    -981.581    -474.169
  H     -364.807    -980.165    -474.630
  H     -364.635    -981.581    -475.684
  P     -363.455    -985.690    -474.090
  C     -363.628    -986.677    -476.509
  O     -362.827    -986.405    -475.380
  O     -365.019    -986.019    -474.150
  O     -362.790    -986.045    -472.782
  H     -365.458    -985.587    -474.902
  H     -362.994    -986.831    -477.375
  H     -364.315    -985.822    -476.713
  H     -364.214    -987.583    -476.330
  H     -368.156    -977.716    -473.317
  H     -369.302    -978.884    -473.932
  H     -368.113    -978.180    -475.001

 3  4  5  6  7  8  9  10  11  12  13  24  28  29  30  31  32 0
 6-311+G(2d,p)
 ****
 33  34 0
 6-311+G(2d,p)
 ****
 1  2  14  15  16  17  18  19  20  21  22  23  25  26  27 0
 3-21G
 ****
 35  36  37  38  39  40  41  42  43  44  45 0
 3-21G
 ****


