%nproc=1
%NoSave
%Mem=1900MB
#P OB98/GEN NMR

erre ene a

0 1
  C     -146.169     -43.030     254.120
  O     -146.737     -41.969     254.860
  H     -145.762     -42.631     253.188
  H     -146.928     -43.778     253.881
  H     -145.359     -43.492     254.690
  P     -147.487     -42.355     256.223
  C     -145.233     -42.430     257.514
  O     -146.418     -43.120     257.141
  C     -144.624     -43.091     258.749
  O     -145.502     -42.903     259.885
  C     -144.445     -44.595     258.623
  O     -143.296     -44.949     257.869
  C     -144.324     -44.996     260.083
  O     -142.983     -44.843     260.565
  C     -145.282     -44.012     260.780
  N     -146.532     -44.659     261.171
  C     -146.407     -45.724     262.059
  O     -145.326     -46.112     262.502
  N     -147.569     -46.360     262.395
  C     -148.808     -46.074     261.902
  O     -149.803     -46.721     262.204
  C     -148.878     -44.950     260.953
  C     -147.753     -44.307     260.633
  O     -148.497     -43.509     255.771
  O     -148.193     -41.223     256.895
  H     -149.407     -43.162     255.752
  H     -142.940     -45.340     261.406
  H     -147.501     -47.132     263.039
  H     -149.845     -44.699     260.541
  H     -147.776     -43.482     259.928
  H     -144.815     -43.599     261.683
  H     -144.603     -46.037     260.225
  H     -145.349     -45.052     258.201
  H     -143.668     -42.604     258.969
  H     -145.470     -41.389     257.750
  H     -144.530     -42.449     256.675
  P     -143.249     -46.417     257.221
  C     -145.614     -46.262     256.077
  O     -144.778     -46.867     257.052
  O     -142.710     -47.269     258.464
  O     -142.411     -46.489     255.992
  H     -142.947     -46.858     259.314
  H     -146.590     -46.698     256.124
  H     -145.199     -46.420     255.104
  H     -145.683     -45.212     256.269

 6  7  8  9  10  11  12  13  14  15  16  27  31  32  33  34  35 0
 6-311+G(2d,p)
 ****
 36  37 0
 6-311+G(2d,p)
 ****
 1  2  3  4  5  17  18  19  20  21  22  23  24  25 0
 3-21G
 ****
 26  28  29  30  38  39  40  41  42  43  44  45 0
 3-21G
 ****


