%nproc=1
%NoSave
%Mem=1900MB
#P OB98/GEN NMR

erre ene a

0 1
  C     -206.516      84.445      53.870
  O     -205.565      85.330      54.473
  P     -205.054      86.586      53.618
  C     -202.856      87.232      52.383
  O     -203.641      86.201      52.959
  C     -201.364      86.956      52.607
  O     -200.975      87.217      53.978
  C     -200.961      85.513      52.326
  O     -200.731      85.292      50.941
  C     -199.645      85.425      53.086
  O     -198.587      86.016      52.308
  C     -199.933      86.273      54.336
  N     -199.968      85.960      59.388
  C     -199.435      86.929      58.558
  N     -198.830      87.976      59.168
  N     -199.491      86.880      57.253
  C     -200.138      85.786      56.786
  C     -200.709      84.757      57.504
  C     -200.628      84.819      58.948
  O     -201.067      83.981      59.735
  N     -201.275      83.823      56.676
  C     -201.066      84.289      55.460
  N     -200.366      85.474      55.471
  O     -204.640      87.644      54.748
  O     -206.075      87.146      52.681
  H     -197.768      85.921      52.831
  H     -204.729      88.552      54.404
  H     -199.890      86.044      60.387
  H     -201.401      83.813      54.546
  H     -199.059      86.849      54.661
  H     -199.349      84.390      53.288
  H     -198.793      88.102      60.167
  H     -201.691      84.806      52.748
  H     -198.462      88.713      58.575
  H     -200.789      87.625      51.952
  H     -203.122      88.202      52.815
  H     -203.092      87.306      51.316
  P     -201.901      84.587      50.097
  C     -202.502      82.100      49.642
  O     -201.858      83.037      50.489
  O     -201.329      84.626      48.599
  O     -203.234      85.255      50.195
  H     -202.065      84.700      47.963
  H     -202.238      81.092      49.970
  H     -202.187      82.229      48.603
  H     -203.592      82.218      49.715
  H     -206.760      83.662      54.557
  H     -206.096      84.022      52.981
  H     -207.403      84.990      53.622

 3  4  5  6  7  8  9  10  11  12  23  26  30  31 0
 6-311+G(2d,p)
 ****
 33  35  36  37  38 0
 6-311+G(2d,p)
 ****
 1  2  13  14  15  16  17  18  19  20  21  22  24  25 0
 3-21G
 ****
 27  28  29  32  34  39  40  41  42  43  44  45  46  47  48  49 0
 3-21G
 ****


