%nproc=1
%NoSave
%Mem=1900MB
#P OB98/GEN NMR

erre ene a

0 1
  C     -274.172      15.413    -170.453
  O     -274.357      15.004    -169.107
  P     -273.686      13.622    -168.649
  C     -275.865      12.293    -169.075
  O     -274.883      12.685    -168.126
  C     -275.820      10.790    -169.315
  O     -276.967      10.406    -170.125
  C     -274.557      10.304    -170.046
  O     -274.081       9.106    -169.419
  C     -275.070       9.929    -171.426
  O     -274.244       8.955    -172.053
  C     -276.475       9.446    -171.080
  N     -278.986       6.205    -174.030
  C     -278.368       5.994    -172.813
  N     -278.370       4.724    -172.348
  N     -277.793       6.938    -172.116
  C     -277.892       8.163    -172.688
  C     -278.488       8.500    -173.882
  C     -279.066       7.434    -174.671
  O     -279.550       7.542    -175.797
  N     -278.400       9.849    -174.118
  C     -277.752      10.326    -173.074
  N     -277.381       9.335    -172.202
  O     -272.908      14.028    -167.311
  O     -272.765      13.000    -169.643
  H     -274.107       8.235    -171.407
  H     -271.963      13.791    -167.394
  H     -279.398       5.438    -174.530
  H     -277.506      11.371    -172.924
  H     -276.434       8.464    -170.587
  H     -275.093      10.825    -172.056
  H     -278.828       3.956    -172.814
  H     -273.751      11.044    -170.090
  H     -277.944       4.554    -171.447
  H     -275.928      10.278    -168.349
  H     -275.680      12.814    -170.020
  H     -276.853      12.586    -168.702
  P     -272.690       9.235    -168.622
  C     -271.344       8.957    -170.833
  O     -271.601       8.485    -169.525
  O     -272.889       8.256    -167.372
  O     -272.355      10.630    -168.211
  H     -272.312       8.523    -166.633
  H     -271.829       9.916    -171.030
  H     -271.710       8.221    -171.554
  H     -270.265       9.072    -170.963
  H     -274.672      16.345    -170.614
  H     -274.578      14.672    -171.110
  H     -273.127      15.530    -170.650

 3  4  5  6  7  8  9  10  11  12  23  26  30  31  33  0
 6-311+G(2d,p)
 ****
 35  36  37  38 0
 6-311+G(2d,p)
 ****
 1  2  13  14  15  16  17  18  19  20  21  22  24  25  27  28  29 0
 3-21G
 ****
 32  34  39  40  41  42  43  44  45  46  47  48  49 0
 3-21G
 ****


