%nproc=1
%NoSave
%Mem=1900MB
#P OB98/GEN NMR

erre ene a

0 1
  C     -460.298     -15.363     547.539
  O     -459.587     -15.501     546.320
  H     -459.869     -14.524     548.093
  H     -460.186     -16.280     548.126
  H     -461.356     -15.160     547.359
  P     -460.177     -16.470     545.184
  C     -458.635     -18.493     545.654
  O     -459.962     -17.969     545.719
  C     -458.466     -19.650     546.649
  O     -459.520     -20.638     546.404
  C     -457.109     -20.392     546.510
  O     -456.750     -20.854     547.840
  C     -457.498     -21.543     545.628
  O     -456.503     -22.549     545.608
  C     -458.863     -21.912     546.223
  N     -459.657     -22.796     545.381
  C     -459.564     -24.156     545.615
  O     -458.856     -24.654     546.504
  N     -460.289     -24.962     544.782
  C     -461.074     -24.537     543.754
  O     -461.739     -25.308     543.049
  C     -461.123     -23.088     543.535
  C     -460.421     -22.292     544.332
  O     -459.692     -16.211     543.793
  O     -461.762     -16.261     545.295
  H     -462.064     -15.625     544.621
  H     -456.780     -23.281     545.018
  H     -460.235     -25.951     544.951
  H     -461.725     -22.706     542.699
  H     -460.434     -21.205     544.215
  H     -458.753     -22.357     547.213
  H     -457.605     -21.198     544.587
  H     -456.309     -19.757     546.136
  H     -458.613     -19.271     547.670
  H     -457.937     -17.685     545.898
  H     -458.439     -18.852     544.626
  P     -455.698     -20.094     548.767
  C     -453.693     -21.702     548.546
  O     -454.207     -20.394     548.292
  O     -455.896     -20.344     550.230
  O     -455.903     -18.517     548.442
  H     -455.777     -18.017     549.266
  H     -452.690     -21.768     548.179
  H     -454.303     -22.428     548.050
  H     -453.701     -21.890     549.599

 6  7  8  9  10  11  12  13  14  15  16  27  31  32  33  34  35 0
 6-311+G(2d,p)
 ****
 36  37 0
 6-311+G(2d,p)
 ****
 1  2  3  4  5  17  18  19  20  21  22  23  24  25 0
 3-21G
 ****
 26  28  29  30  38  39  40  41  42  43  44  45 0
 3-21G
 ****


