%nproc=1
%NoSave
%Mem=1900MB
#P OB98/GEN NMR

erre ene a

0 1
  C       -8.285      10.465      -2.473
  O       -7.814      10.933      -3.718
  H       -8.284       9.372      -2.489
  H       -9.310      10.813      -2.314
  H       -7.650      10.805      -1.652
  P       -7.298      12.443      -3.827
  C       -9.644      13.202      -4.584
  O       -8.251      13.212      -4.865
  C      -10.282      14.574      -4.805
  O      -11.679      14.539      -4.441
  C       -9.645      15.657      -3.934
  O       -8.466      16.240      -4.458
  C      -10.770      16.684      -3.844
  O      -10.746      17.571      -4.974
  C      -12.027      15.813      -3.872
  N      -14.930      17.754      -0.143
  C      -14.518      18.345      -1.321
  N      -14.877      19.636      -1.499
  N      -13.805      17.729      -2.226
  C      -13.439      16.476      -1.869
  C      -13.774      15.789      -0.723
  C      -14.611      16.462       0.248
  O      -14.998      15.985       1.311
  N      -13.221      14.531      -0.711
  C      -12.493      14.487      -1.808
  N      -12.615      15.633      -2.557
  O       -5.927      12.313      -4.649
  O       -7.078      13.141      -2.520
  H      -11.356      18.310      -4.797
  H       -5.336      13.055      -4.428
  H      -15.501      18.267       0.504
  H      -11.885      13.645      -2.120
  H      -12.803      16.249      -4.514
  H      -10.676      17.308      -2.950
  H      -15.324      20.184      -0.781
  H       -9.450      15.272      -2.928
  H      -14.379      20.176      -2.208
  H      -10.230      14.828      -5.870
  H       -9.752      12.904      -3.539
  H      -10.147      12.444      -5.190
  P       -7.169      16.392      -3.533
  C       -8.166      18.203      -1.952
  O       -7.199      17.874      -2.925
  O       -5.977      16.441      -4.599
  O       -6.977      15.303      -2.535
  H       -5.580      15.556      -4.701
  H       -8.043      19.225      -1.658
  H       -8.043      17.569      -1.099
  H       -9.145      18.065      -2.361

 6  7  8  9  10  11  12  13  14  15  26  29  33  34 0
 6-311+G(2d,p)
 ****
 36  38  39  40  41 0
 6-311+G(2d,p)
 ****
 1  2  3  4  5  16  17  18  19  20  21  22  23  24  25 0
 3-21G
 ****
 27  28  30  31  32  35  37  42  43  44  45  46  47 0
 3-21G
 ****
 48  49 0
 3-21G
 ****


