%nproc=1
%NoSave
%Mem=1900MB
#P OB98/GEN NMR

erre ene a

0 1
  C     -893.597    -718.084    -280.530
  O     -894.457    -719.082    -280.015
  H     -892.987    -718.522    -281.319
  H     -892.937    -717.714    -279.744
  H     -894.177    -717.251    -280.955
  P     -895.577    -718.655    -278.950
  C     -895.547    -717.823    -276.519
  O     -894.857    -718.545    -277.526
  C     -895.867    -718.741    -275.330
  O     -894.627    -719.287    -274.805
  C     -896.527    -718.025    -274.158
  O     -897.887    -717.766    -274.412
  C     -896.257    -719.020    -273.042
  O     -897.207    -720.086    -273.062
  C     -894.847    -719.540    -273.387
  N     -893.807    -718.922    -272.578
  C     -893.747    -719.319    -271.246
  O     -894.507    -720.150    -270.753
  N     -892.807    -718.676    -270.484
  C     -892.057    -717.607    -270.866
  O     -891.427    -716.914    -270.081
  C     -892.117    -717.279    -272.295
  C     -892.967    -717.925    -273.087
  O     -896.837    -719.478    -278.974
  O     -895.877    -717.119    -279.323
  H     -896.717    -717.069    -279.822
  H     -896.797    -720.828    -272.574
  H     -892.787    -718.936    -269.493
  H     -891.467    -716.488    -272.663
  H     -893.057    -717.675    -274.124
  H     -894.807    -720.631    -273.263
  H     -896.307    -718.541    -272.058
  H     -895.987    -717.090    -273.948
  H     -896.477    -719.569    -275.685
  H     -896.497    -717.442    -276.938
  H     -894.927    -716.978    -276.197
  P     -898.617    -716.508    -273.727
  C     -899.047    -715.656    -271.347
  O     -898.717    -716.781    -272.151
  O     -899.887    -716.083    -274.370
  O     -897.517    -715.347    -273.818
  H     -897.947    -714.532    -274.190
  H     -899.086    -715.951    -270.319
  H     -900.000    -715.272    -271.645
  H     -898.302    -714.898    -271.472

 6  7  8  9  10  11  12  13  14  15  16  27  31  32  33  34  35 0
 6-311+G(2d,p)
 ****
 36  37 0
 6-311+G(2d,p)
 ****
 1  2  3  4  5  17  18  19  20  21  22  23  24  25 0
 3-21G
 ****
 26  28  29  30  38  39  40  41  42  43  44  45 0
 3-21G
 ****


