%nproc=1
%NoSave
%Mem=1900MB
#P OB98/GEN NMR

erre ene a

0 1
  C      250.314      25.608       9.711
  O      249.795      26.853       9.245
  P      250.757      27.824       8.408
  C      249.356      27.406       6.287
  O      250.660      27.419       6.859
  C      249.376      26.750       4.904
  O      249.892      25.405       4.960
  C      247.997      26.626       4.280
  O      247.538      27.884       3.812
  C      248.249      25.586       3.201
  O      248.815      26.186       2.026
  C      249.288      24.664       3.878
  N      248.725      23.407       4.341
  C      248.398      22.475       3.349
  O      248.550      22.757       2.159
  N      247.889      21.258       3.728
  C      247.717      20.996       4.989
  N      247.212      19.774       5.307
  C      248.038      21.955       6.065
  C      248.527      23.129       5.673
  O      252.145      27.974       8.940
  O      249.971      29.224       8.448
  H      248.351      27.039       1.907
  H      250.621      29.951       8.412
  H      247.880      21.684       7.100
  H      248.788      23.891       6.398
  H      250.101      24.429       3.176
  H      247.326      25.086       2.893
  H      247.288      26.229       5.020
  H      250.028      27.350       4.254
  H      246.990      19.142       4.549
  H      248.983      28.430       6.208
  H      247.090      19.459       6.258
  H      248.678      26.875       6.965
  P      246.933      28.907       4.889
  C      248.614      30.819       4.404
  O      248.110      29.891       5.347
  O      246.710      27.978       6.178
  O      245.660      29.572       4.477
  H      245.924      28.281       6.666
  H      249.159      31.598       4.942
  H      247.808      31.287       3.833
  H      249.304      30.315       3.720
  H      249.552      25.082      10.248
  H      251.146      25.789      10.359
  H      250.633      25.020       8.876

 3  4  5  6  7  8  9  10  11  12  13  23  27  28  29  30  32 0
 6-311+G(2d,p)
 ****
 34  35 0
 6-311+G(2d,p)
 ****
 1  2  14  15  16  17  18  19  20  21  22  24  25  26 0
 3-21G
 ****
 31  33  36  37  38  39  40  41  42  43  44  45  46 0
 3-21G
 ****


