%nproc=1
%NoSave
%Mem=1900MB
#P OB98/GEN NMR

erre ene a

0 1
  C       14.157     372.921     -27.549
  O       13.910     374.320     -27.582
  P       12.467     374.832     -27.120
  C       10.034     374.539     -28.015
  O       11.423     374.414     -28.265
  C        9.249     374.269     -29.304
  O        9.307     375.416     -30.172
  C        9.795     373.102     -30.112
  O        9.385     371.858     -29.576
  C        9.212     373.388     -31.495
  O        7.862     372.895     -31.594
  C        9.233     374.930     -31.538
  N       10.324     375.452     -32.359
  C       10.163     375.327     -33.738
  O        9.172     374.790     -34.249
  N       11.184     375.802     -34.507
  C       12.365     376.328     -34.048
  O       13.271     376.685     -34.788
  C       12.486     376.403     -32.579
  C       11.491     375.968     -31.818
  O       12.565     376.424     -27.255
  O       12.068     374.413     -25.746
  H        7.460     373.009     -30.710
  H       12.045     376.849     -26.545
  H       11.079     375.744     -35.509
  H       13.411     376.820     -32.181
  H       11.564     376.006     -30.740
  H        8.284     375.311     -31.941
  H        9.788     372.910     -32.293
  H       10.892     373.168     -30.171
  H        8.193     374.091     -29.039
  H        9.820     375.550     -27.658
  H        9.744     373.828     -27.235
  P       10.379     370.604     -29.805
  C       11.412     369.585     -31.980
  O       10.398     370.381     -31.390
  O        9.482     369.413     -29.222
  O       11.703     370.783     -29.139
  H        8.530     369.559     -29.364
  H       11.689     368.748     -31.332
  H       12.289     370.206     -32.178
  H       11.038     369.192     -32.927
  H       15.155     372.727     -27.882
  H       13.463     372.421     -28.192
  H       14.039     372.561     -26.548

 3  4  5  6  7  8  9  10  11  12  13  23  28  29  30  31  32 0
 6-311+G(2d,p)
 ****
 33  34 0
 6-311+G(2d,p)
 ****
 1  2  14  15  16  17  18  19  20  21  22  24  25  26 0
 3-21G
 ****
 27  35  36  37  38  39  40  41  42  43  44  45 0
 3-21G
 ****


