%nproc=1
%NoSave
%Mem=1900MB
#P OB98/GEN NMR

erre ene a

0 1
  C      106.158    -163.203      52.812
  O      105.714    -164.547      52.984
  P      105.713    -165.342      54.365
  C      107.072    -167.340      55.401
  O      106.903    -166.410      54.341
  C      108.399    -168.103      55.260
  O      108.234    -169.142      54.248
  C      109.550    -167.200      54.801
  O      110.776    -167.450      55.479
  C      109.542    -167.385      53.292
  O      110.763    -167.014      52.671
  C      109.135    -168.849      53.153
  N      109.736    -169.437      48.119
  C      110.632    -168.969      49.058
  N      111.845    -168.588      48.603
  N      110.359    -168.863      50.331
  C      109.088    -169.201      50.643
  C      108.105    -169.665      49.800
  C      108.434    -169.826      48.400
  O      107.683    -170.256      47.528
  N      106.940    -169.915      50.480
  C      107.212    -169.583      51.727
  N      108.511    -169.151      51.877
  O      104.384    -165.827      54.838
  O      106.237    -164.252      55.433
  H      111.452    -167.635      52.972
  H      105.795    -164.464      56.280
  H      110.008    -169.520      47.154
  H      106.519    -169.650      52.557
  H      109.989    -169.525      53.235
  H      108.763    -166.730      52.882
  H      112.077    -168.527      47.624
  H      109.337    -166.151      55.034
  H      112.412    -168.043      49.253
  H      108.627    -168.592      56.213
  H      106.232    -168.038      55.328
  H      107.005    -166.840      56.369
  P      111.578    -166.492      56.474
  C      113.824    -165.258      56.537
  O      113.012    -166.180      55.834
  O      111.941    -167.412      57.732
  O      110.822    -165.283      56.920
  H      111.521    -167.050      58.537
  H      114.634    -164.933      55.880
  H      114.254    -165.743      57.416
  H      113.244    -164.384      56.844
  H      106.049    -162.920      51.786
  H      107.187    -163.128      53.095
  H      105.571    -162.552      53.426

 3  4  5  6  7  8  9  10  11  12  23  26  30  31 0
 6-311+G(2d,p)
 ****
 33  35  36  37  38 0
 6-311+G(2d,p)
 ****
 1  2  13  14  15  16  17  18  19  20  21  22  24  25 0
 3-21G
 ****
 27  28  29  32  34  39  40  41  42  43  44  45  46  47  48  49 0
 3-21G
 ****


