%nproc=1
%NoSave
%Mem=1900MB
#P OB98/GEN NMR

erre ene a

0 1
  C     -241.954    -893.830     173.404
  O     -242.226    -894.978     172.616
  H     -242.439    -892.966     172.940
  H     -240.874    -893.638     173.428
  H     -242.336    -893.963     174.414
  P     -241.557    -896.349     173.105
  C     -243.653    -897.864     172.839
  O     -242.352    -897.528     172.352
  C     -243.969    -899.327     172.516
  O     -242.830    -900.164     172.806
  C     -245.136    -899.896     173.291
  O     -246.386    -899.566     172.706
  C     -244.847    -901.396     173.231
  O     -245.268    -901.951     171.970
  C     -243.318    -901.424     173.356
  N     -242.858    -904.701     177.186
  C     -243.345    -904.884     175.918
  N     -243.841    -906.105     175.631
  N     -243.371    -903.947     174.992
  C     -242.869    -902.746     175.432
  C     -242.353    -902.451     176.659
  C     -242.304    -903.513     177.661
  O     -241.818    -903.423     178.796
  N     -241.932    -901.143     176.728
  C     -242.251    -900.658     175.527
  N     -242.837    -901.598     174.724
  O     -242.055    -896.482     174.623
  O     -240.064    -896.418     173.010
  H     -246.251    -901.915     171.916
  H     -241.375    -896.965     175.145
  H     -242.858    -905.455     177.847
  H     -242.050    -899.629     175.226
  H     -242.868    -902.233     172.773
  H     -245.378    -901.934     174.019
  H     -244.164    -906.728     176.351
  H     -245.119    -899.552     174.356
  H     -244.228    -906.237     174.690
  H     -244.150    -899.391     171.431
  H     -244.402    -897.222     172.351
  H     -243.683    -897.700     173.908
  P     -247.604    -899.221     173.661
  C     -248.549    -897.855     171.649
  O     -248.823    -898.751     172.711
  O     -247.168    -897.871     174.386
  O     -247.956    -900.300     174.642
  H     -247.713    -897.707     175.187
  H     -249.454    -897.643     171.119
  H     -247.840    -898.299     170.982
  H     -248.146    -896.946     172.044

 6  7  8  9  10  11  12  13  14  15  26  29  33  34 0
 6-311+G(2d,p)
 ****
 36  38  39  40  41 0
 6-311+G(2d,p)
 ****
 1  2  3  4  5  16  17  18  19  20  21  22  23  24  25 0
 3-21G
 ****
 27  28  30  31  32  35  37  42  43  44  45  46  47 0
 3-21G
 ****
 48  49 0
 3-21G
 ****


