%nproc=1
%NoSave
%Mem=1900MB
#P OB98/GEN NMR

erre ene a

0 1
  C      184.775    -567.053    -107.575
  O      185.533    -566.667    -108.714
  P      186.323    -567.691    -109.633
  C      188.461    -569.174    -109.443
  O      187.660    -568.160    -108.852
  C      189.930    -568.738    -109.626
  O      190.562    -568.622    -108.326
  C      190.699    -569.829    -110.382
  O      190.670    -569.875    -111.799
  C      192.118    -569.806    -109.776
  O      193.033    -569.057    -110.560
  C      191.894    -569.139    -108.413
  N      195.166    -572.248    -106.100
  C      195.405    -571.312    -107.091
  N      196.634    -571.336    -107.648
  N      194.525    -570.441    -107.491
  C      193.312    -570.597    -106.912
  C      192.947    -571.484    -105.898
  C      193.961    -572.390    -105.441
  O      193.762    -573.311    -104.633
  N      191.619    -571.393    -105.605
  C      191.153    -570.503    -106.448
  N      192.130    -570.015    -107.282
  O      186.426    -567.363    -111.085
  O      185.400    -569.020    -109.502
  H      193.055    -569.443    -111.462
  H      185.427    -569.492    -110.370
  H      195.871    -572.939    -105.892
  H      190.110    -570.194    -106.517
  H      192.574    -568.285    -108.299
  H      192.518    -570.824    -109.712
  H      197.289    -572.093    -107.471
  H      190.279    -570.797    -110.068
  H      196.800    -570.785    -108.486
  H      189.993    -567.751    -110.081
  H      188.008    -569.418    -110.419
  H      188.422    -570.071    -108.830
  P      191.015    -571.132    -112.718
  C      193.058    -572.599    -113.258
  O      192.529    -571.561    -112.435
  O      191.080    -570.538    -114.205
  O      190.019    -572.257    -112.655
  H      190.941    -571.242    -114.853
  H      193.943    -573.008    -112.793
  H      193.306    -572.184    -114.244
  H      192.308    -573.408    -113.381
  H      184.340    -566.185    -107.126
  H      185.415    -567.538    -106.868
  H      184.000    -567.727    -107.874

 3  4  5  6  7  8  9  10  11  12  23  26  30  31 0
 6-311+G(2d,p)
 ****
 33  35  36  37  38 0
 6-311+G(2d,p)
 ****
 1  2  13  14  15  16  17  18  19  20  21  22  24  25 0
 3-21G
 ****
 27  28  29  32  34  39  40  41  42  43  44  45  46  47  48  49 0
 3-21G
 ****


