%nproc=1
%NoSave
%Mem=1900MB
#P OB98/GEN NMR

erre ene a

0 1
  C     -253.361      70.855      33.953
  O     -254.545      71.394      34.554
  P     -255.138      72.751      33.930
  C     -255.187      74.046      36.206
  O     -255.915      73.472      35.130
  C     -256.080      74.162      37.440
  O     -255.881      73.030      38.322
  C     -255.807      75.392      38.295
  O     -256.320      76.567      37.685
  C     -256.488      74.996      39.597
  O     -257.903      75.217      39.511
  C     -256.194      73.480      39.661
  N     -255.132      73.143      40.601
  C     -255.495      73.132      41.945
  O     -256.625      73.411      42.340
  N     -254.500      72.807      42.829
  C     -253.204      72.527      42.507
  O     -252.358      72.232      43.343
  C     -252.870      72.602      41.077
  C     -253.832      72.903      40.201
  O     -256.295      72.175      32.990
  O     -254.103      73.572      33.234
  H     -256.732      71.390      33.361
  H     -258.275      74.967      40.381
  H     -254.745      72.782      43.806
  H     -251.844      72.414      40.787
  H     -253.605      72.966      39.142
  H     -257.099      72.934      39.961
  H     -256.117      75.568      40.454
  H     -254.728      75.501      38.456
  H     -257.126      74.157      37.106
  H     -254.833      75.043      35.925
  H     -254.308      73.428      36.409
  P     -255.354      77.853      37.665
  C     -257.337      79.216      38.686
  O     -256.310      79.139      37.724
  O     -254.833      77.824      36.150
  O     -254.271      77.806      38.690
  H     -255.541      77.649      35.509
  H     -257.634      80.264      38.799
  H     -257.008      78.841      39.657
  H     -258.203      78.642      38.344
  H     -253.079      69.958      34.463
  H     -252.568      71.570      34.023
  H     -253.552      70.634      32.924

 3  4  5  6  7  8  9  10  11  12  13  24  28  29  30  31  32 0
 6-311+G(2d,p)
 ****
 33  34 0
 6-311+G(2d,p)
 ****
 1  2  14  15  16  17  18  19  20  21  22  23  25  26  27 0
 3-21G
 ****
 35  36  37  38  39  40  41  42  43  44  45 0
 3-21G
 ****


