%nproc=1
%NoSave
%Mem=1900MB
#P OB98/GEN NMR

erre ene a

0 1
  C     -285.483     280.896     144.069
  O     -285.514     280.217     145.310
  H     -285.159     281.923     144.238
  H     -286.480     280.908     143.616
  H     -284.769     280.409     143.396
  P     -286.020     278.694     145.288
  C     -288.320     277.564     145.598
  O     -287.608     278.795     145.533
  C     -289.823     277.809     145.394
  O     -290.387     278.251     146.648
  C     -290.131     278.879     144.337
  O     -291.319     278.502     143.633
  C     -290.410     280.116     145.178
  O     -291.209     281.069     144.483
  C     -291.078     279.497     146.401
  N     -293.771     281.665     150.153
  C     -294.081     280.712     149.243
  N     -293.285     280.170     148.293
  C     -292.037     280.678     148.370
  C     -291.576     281.655     149.234
  C     -292.503     282.166     150.156
  N     -292.208     283.162     151.054
  N     -290.244     281.934     148.967
  C     -289.917     281.144     147.966
  N     -290.979     280.376     147.554
  O     -285.297     277.759     146.196
  O     -285.935     278.340     143.728
  H     -292.082     280.660     144.287
  H     -286.319     279.050     143.179
  H     -295.099     280.336     149.284
  H     -288.937     281.091     147.491
  H     -292.138     279.277     146.247
  H     -289.470     280.604     145.449
  H     -289.311     279.035     143.636
  H     -290.296     276.854     145.146
  H     -288.155     277.086     146.575
  H     -292.938     283.465     151.686
  H     -291.273     283.543     151.085
  H     -287.929     276.901     144.817
  P     -291.423     278.826     142.071
  C     -292.182     280.784     140.560
  O     -292.156     280.251     141.878
  O     -291.961     277.723     141.214
  O     -289.902     279.161     141.668
  H     -289.698     278.751     140.806
  H     -292.692     281.724     140.566
  H     -292.693     280.105     139.911
  H     -291.180     280.924     140.212

 6  7  8  9  10  11  12  13  14  15  25  28  32  33  34  35 0
 6-311+G(2d,p)
 ****
 36  39  40 0
 6-311+G(2d,p)
 ****
 1  2  3  4  5  16  17  18  19  20  21  22  23  24 0
 3-21G
 ****
 26  27  29  30  31  37  38  41  42  43  44  45  46  47 0
 3-21G
 ****
 48 0
 3-21G
 ****


