%nproc=1
%NoSave
%Mem=1900MB
#P OB98/GEN NMR

erre ene a

0 1
  C     -844.762    -230.448     233.293
  O     -845.463    -231.572     232.807
  H     -843.913    -230.249     232.641
  H     -844.389    -230.650     234.302
  H     -845.410    -229.561     233.307
  P     -846.875    -231.909     233.473
  C     -845.710    -233.515     235.156
  O     -846.725    -233.344     234.175
  C     -845.962    -234.790     235.963
  O     -847.230    -234.637     236.662
  C     -846.060    -236.064     235.105
  O     -845.482    -237.143     235.840
  C     -847.556    -236.282     234.984
  O     -847.919    -237.630     234.700
  C     -848.032    -235.806     236.364
  N     -849.458    -235.485     236.390
  C     -850.316    -236.423     236.954
  O     -849.948    -237.455     237.520
  N     -851.654    -236.128     236.864
  C     -852.202    -235.039     236.255
  O     -853.400    -234.844     236.185
  C     -851.241    -234.087     235.656
  C     -849.935    -234.355     235.752
  O     -847.813    -232.209     232.207
  O     -847.433    -230.839     234.362
  H     -848.235    -231.387     231.894
  H     -848.879    -237.654     234.525
  H     -852.285    -236.803     237.270
  H     -851.645    -233.217     235.158
  H     -849.215    -233.686     235.301
  H     -847.811    -236.564     237.120
  H     -847.972    -235.648     234.190
  H     -845.570    -235.974     234.123
  H     -845.181    -234.884     236.726
  H     -845.718    -232.650     235.836
  H     -844.731    -233.566     234.658
  P     -843.978    -237.570     235.474
  C     -844.969    -239.102     233.582
  O     -844.097    -238.970     234.714
  O     -843.407    -237.947     236.919
  O     -843.233    -236.501     234.750
  H     -844.063    -238.359     237.492
  H     -844.918    -240.103     233.207
  H     -844.666    -238.418     232.817
  H     -845.974    -238.883     233.878

 6  7  8  9  10  11  12  13  14  15  16  27  31  32  33  34  35 0
 6-311+G(2d,p)
 ****
 36  37 0
 6-311+G(2d,p)
 ****
 1  2  3  4  5  17  18  19  20  21  22  23  24  25 0
 3-21G
 ****
 26  28  29  30  38  39  40  41  42  43  44  45 0
 3-21G
 ****


