%nproc=1
%NoSave
%Mem=1900MB
#P OB98/GEN NMR

erre ene a

0 1
  C      148.672    -114.214     145.612
  O      147.598    -114.956     146.209
  P      146.139    -114.343     146.469
  C      143.689    -115.156     146.266
  O      145.063    -115.524     146.297
  C      142.859    -116.210     145.521
  O      143.226    -116.234     144.121
  C      143.064    -117.647     145.986
  O      142.447    -117.901     147.233
  C      142.462    -118.422     144.816
  O      141.040    -118.544     144.943
  C      142.805    -117.524     143.611
  N      143.819    -118.099     142.741
  C      143.381    -119.041     141.806
  O      142.206    -119.409     141.795
  N      144.293    -119.552     140.914
  C      145.547    -119.233     141.021
  N      146.400    -119.756     140.099
  C      146.070    -118.347     142.079
  C      145.160    -117.820     142.894
  O      145.833    -113.131     145.649
  O      146.091    -114.007     148.034
  H      145.455    -113.285     148.193
  H      140.726    -119.038     144.158
  H      147.126    -118.142     142.153
  H      145.455    -117.146     143.692
  H      141.902    -117.319     143.023
  H      142.870    -119.436     144.743
  H      144.138    -117.856     146.048
  H      141.801    -115.928     145.600
  H      146.006    -120.352     139.380
  H      143.596    -114.198     145.741
  H      147.389    -119.557     140.076
  H      143.325    -115.029     147.294
  P      143.409    -118.316     148.447
  C      143.223    -118.440     151.037
  O      142.580    -118.151     149.807
  O      144.479    -117.119     148.505
  O      144.085    -119.635     148.280
  H      145.363    -117.481     148.704
  H      142.751    -117.852     151.825
  H      144.287    -118.203     151.000
  H      143.093    -119.502     151.265
  H      149.540    -114.835     145.544
  H      148.892    -113.358     146.215
  H      148.384    -113.896     144.632

 3  4  5  6  7  8  9  10  11  12  13  24  27  28  29  30  32 0
 6-311+G(2d,p)
 ****
 34  35 0
 6-311+G(2d,p)
 ****
 1  2  14  15  16  17  18  19  20  21  22  23  25  26 0
 3-21G
 ****
 31  33  36  37  38  39  40  41  42  43  44  45  46 0
 3-21G
 ****


