%nproc=1
%NoSave
%Mem=1900MB
#P OB98/GEN NMR

erre ene a

0 1
  C     -622.125     109.482    1109.087
  O     -622.608     110.483    1108.165
  P     -624.173     110.762    1107.955
  C     -624.059     113.335    1107.719
  O     -624.337     112.102    1107.053
  C     -623.164     114.246    1106.854
  O     -621.797     113.764    1106.902
  C     -623.531     114.312    1105.391
  O     -624.650     115.181    1105.201
  C     -622.237     114.800    1104.748
  O     -622.094     116.223    1104.907
  C     -621.189     114.057    1105.602
  N     -617.148     111.807    1103.417
  C     -617.319     113.028    1103.952
  N     -618.432     113.554    1104.513
  C     -619.438     112.661    1104.505
  C     -619.406     111.379    1103.986
  C     -618.205     110.934    1103.392
  N     -618.040     109.710    1102.834
  N     -620.647     110.770    1104.123
  C     -621.401     111.660    1104.756
  N     -620.695     112.818    1105.014
  O     -624.976     110.754    1109.208
  O     -624.659     109.608    1106.966
  H     -621.215     116.464    1104.633
  H     -625.614     109.416    1107.128
  H     -616.449     113.679    1103.920
  H     -622.428     111.522    1105.036
  H     -620.311     114.688    1105.805
  H     -622.180     114.573    1103.687
  H     -623.779     113.306    1105.014
  H     -623.176     115.239    1107.317
  H     -623.560     113.135    1108.669
  H     -617.159     109.477    1102.413
  H     -618.857     109.089    1102.793
  H     -624.993     113.844    1107.925
  P     -625.878     114.763    1104.256
  C     -627.594     115.796    1105.856
  O     -627.084     115.783    1104.544
  O     -626.258     113.303    1104.316
  O     -625.392     115.165    1102.776
  H     -625.774     114.549    1102.130
  H     -628.290     114.961    1105.977
  H     -628.152     116.748    1105.999
  H     -626.813     115.729    1106.605
  H     -621.055     109.465    1109.067
  H     -622.502     108.522    1108.801
  H     -622.460     109.717    1110.076

 3  4  5  6  7  8  9  10  11  12  22  25  29  30  31  32 0
 6-311+G(2d,p)
 ****
 33  36  37 0
 6-311+G(2d,p)
 ****
 1  2  13  14  15  16  17  18  19  20  21  23  24  26 0
 3-21G
 ****
 27  28  34  35  38  39  40  41  42  43  44  45  46  47  48 0
 3-21G
 ****


