%nproc=1
%NoSave
%Mem=1900MB
#P OB98/GEN NMR

erre ene a

0 1
  C       13.990     -89.056      96.516
  O       14.553     -89.890      97.507
  P       15.772     -89.400      98.425
  C       15.221     -90.709     100.569
  O       16.071     -90.611      99.436
  C       15.864     -91.542     101.678
  O       16.123     -92.887     101.189
  C       17.188     -90.980     102.213
  O       17.232     -91.310     103.605
  C       18.218     -91.784     101.443
  O       19.500     -91.766     102.058
  C       17.529     -93.154     101.384
  N       18.081     -93.998     100.330
  C       19.365     -94.506     100.541
  O       20.008     -94.175     101.540
  N       19.915     -95.331      99.594
  C       19.277     -95.544      98.485
  N       19.868     -96.375      97.584
  C       17.976     -94.926      98.169
  C       17.434     -94.185      99.132
  O       15.584     -88.071      99.075
  O       17.031     -89.456      97.441
  H       20.057     -92.451     101.629
  H       17.026     -88.677      96.830
  H       17.510     -95.088      97.210
  H       16.482     -93.692      98.994
  H       17.634     -93.680     102.341
  H       18.327     -91.371     100.432
  H       17.299     -89.904     102.066
  H       15.139     -91.630     102.497
  H       20.753     -96.789      97.848
  H       14.294     -91.198     100.256
  H       19.421     -96.671      96.731
  H       14.964     -89.709     100.932
  P       17.373     -90.174     104.726
  C       17.454     -91.980     106.536
  O       18.096     -90.846     105.985
  O       16.112     -89.440     105.044
  O       18.493     -89.183     104.147
  H       18.462     -88.339     104.635
  H       18.158     -92.509     107.184
  H       17.116     -92.660     105.749
  H       16.595     -91.661     107.132
  H       13.194     -89.575      96.023
  H       14.742     -88.794      95.801
  H       13.607     -88.167      96.973

 3  4  5  6  7  8  9  10  11  12  13  23  27  28  29  30  32 0
 6-311+G(2d,p)
 ****
 34  35 0
 6-311+G(2d,p)
 ****
 1  2  14  15  16  17  18  19  20  21  22  24  25  26 0
 3-21G
 ****
 31  33  36  37  38  39  40  41  42  43  44  45  46 0
 3-21G
 ****


