%nproc=1
%NoSave
%Mem=1900MB
#P OB98/GEN NMR

erre ene a

0 1
  C      141.660      -1.914     -78.237
  O      141.442      -3.319     -78.389
  P      142.526      -4.279     -77.692
  C      142.092      -3.900     -75.162
  O      141.915      -4.755     -76.284
  C      141.551      -4.553     -73.884
  O      140.092      -4.561     -73.884
  C      142.010      -6.012     -73.695
  O      142.178      -6.212     -72.285
  C      140.807      -6.790     -74.211
  O      140.811      -8.153     -73.816
  C      139.680      -5.928     -73.650
  N      135.225      -8.344     -73.050
  C      136.327      -8.278     -72.275
  N      137.481      -7.612     -72.508
  C      137.420      -6.961     -73.682
  C      136.364      -6.936     -74.586
  C      135.219      -7.671     -74.229
  N      134.098      -7.763     -75.023
  N      136.690      -6.171     -75.696
  C      137.946      -5.811     -75.490
  N      138.395      -6.191     -74.259
  O      143.704      -3.276     -77.281
  O      143.004      -5.383     -78.576
  H      141.651      -8.575     -74.094
  H      144.427      -3.313     -77.935
  H      136.279      -8.835     -71.343
  H      138.569      -5.276     -76.197
  H      139.559      -6.056     -72.569
  H      140.804      -6.766     -75.309
  H      142.946      -6.248     -74.207
  H      141.876      -3.951     -73.025
  H      141.572      -2.954     -75.326
  H      133.327      -8.319     -74.684
  H      134.062      -7.285     -75.913
  H      143.156      -3.653     -75.064
  P      143.579      -5.820     -71.612
  C      143.091      -3.333     -71.195
  O      143.223      -4.615     -70.607
  O      144.276      -5.025     -72.821
  O      144.394      -6.949     -71.071
  H      143.676      -4.351     -73.188
  H      142.771      -2.626     -70.426
  H      142.342      -3.357     -71.993
  H      144.056      -3.007     -71.595
  H      140.882      -1.376     -78.738
  H      142.606      -1.652     -78.662
  H      141.654      -1.663     -77.197

 3  4  5  6  7  8  9  10  11  12  22  25  29  30  31  32 0
 6-311+G(2d,p)
 ****
 33  36  37 0
 6-311+G(2d,p)
 ****
 1  2  13  14  15  16  17  18  19  20  21  23  24  26 0
 3-21G
 ****
 27  28  34  35  38  39  40  41  42  43  44  45  46  47  48 0
 3-21G
 ****


