%nproc=1
%NoSave
%Mem=1900MB
#P OB98/GEN NMR

erre ene a

0 1
  C     -141.260     169.957    -709.904
  O     -140.488     169.580    -708.776
  P     -140.482     168.022    -708.372
  C     -138.347     167.455    -709.763
  O     -139.738     167.244    -709.567
  C     -137.600     166.115    -709.728
  O     -137.513     165.628    -708.377
  C     -138.269     165.005    -710.524
  O     -138.062     165.175    -711.921
  C     -137.581     163.786    -709.925
  O     -136.271     163.626    -710.488
  C     -137.464     164.181    -708.434
  N     -139.579     159.876    -706.627
  C     -138.519     160.093    -707.439
  N     -138.032     161.266    -707.894
  C     -138.754     162.298    -707.417
  C     -139.865     162.224    -706.600
  C     -140.281     160.953    -706.194
  N     -141.365     160.737    -705.367
  N     -140.352     163.494    -706.337
  C     -139.542     164.306    -706.979
  N     -138.548     163.631    -707.628
  O     -142.009     167.596    -708.550
  O     -139.965     167.733    -706.999
  H     -136.382     163.506    -711.451
  H     -142.259     166.916    -707.891
  H     -138.001     159.199    -707.783
  H     -139.624     165.385    -706.992
  H     -136.517     163.860    -707.987
  H     -138.132     162.852    -710.095
  H     -139.347     164.977    -710.310
  H     -136.580     166.294    -710.098
  H     -137.957     168.092    -708.958
  H     -141.678     159.791    -705.247
  H     -141.967     161.522    -705.158
  H     -138.190     167.969    -710.712
  P     -139.081     164.426    -712.910
  C     -140.315     166.685    -712.984
  O     -140.434     165.277    -712.780
  O     -139.429     163.106    -712.079
  O     -138.568     164.224    -714.300
  H     -139.660     163.299    -711.159
  H     -141.308     167.138    -712.921
  H     -139.887     166.891    -713.965
  H     -139.680     167.119    -712.204
  H     -141.175     171.012    -710.058
  H     -142.286     169.703    -709.735
  H     -140.902     169.440    -710.770

 3  4  5  6  7  8  9  10  11  12  22  25  29  30  31  32 0
 6-311+G(2d,p)
 ****
 33  36  37 0
 6-311+G(2d,p)
 ****
 1  2  13  14  15  16  17  18  19  20  21  23  24  26 0
 3-21G
 ****
 27  28  34  35  38  39  40  41  42  43  44  45  46  47  48 0
 3-21G
 ****


