%nproc=1
%NoSave
%Mem=1900MB
#P OB98/GEN NMR

erre ene a

0 1
  C     -217.319    -458.600    -192.494
  O     -216.496    -459.748    -192.534
  H     -217.760    -458.449    -193.483
  H     -216.721    -457.723    -192.236
  H     -218.124    -458.732    -191.764
  P     -215.821    -460.205    -191.152
  C     -213.291    -460.293    -191.720
  O     -214.496    -461.026    -191.547
  C     -212.683    -460.569    -193.096
  O     -213.693    -460.317    -194.118
  C     -211.465    -459.697    -193.430
  O     -210.555    -460.487    -194.211
  C     -212.052    -458.625    -194.335
  O     -211.069    -458.000    -195.159
  C     -213.088    -459.452    -195.095
  N     -214.551    -457.690    -199.578
  C     -213.534    -458.568    -199.243
  N     -212.792    -459.052    -200.265
  N     -213.271    -458.939    -198.021
  C     -214.115    -458.401    -197.106
  C     -215.150    -457.521    -197.302
  C     -215.418    -457.096    -198.662
  O     -216.289    -456.308    -199.014
  N     -215.751    -457.186    -196.112
  C     -215.077    -457.868    -195.201
  N     -214.075    -458.618    -195.752
  O     -216.825    -461.339    -190.629
  O     -215.626    -459.124    -190.145
  H     -211.502    -457.257    -195.629
  H     -217.484    -460.953    -190.025
  H     -214.706    -457.429    -200.535
  H     -215.270    -457.849    -194.136
  H     -212.631    -460.076    -195.871
  H     -212.538    -457.850    -193.731
  H     -212.969    -458.848    -201.233
  H     -210.945    -459.288    -192.557
  H     -212.071    -459.730    -200.047
  H     -212.431    -461.633    -193.156
  H     -212.576    -460.591    -190.947
  H     -213.504    -459.220    -191.614
  P     -209.014    -460.507    -193.782
  C     -207.821    -459.200    -195.689
  O     -208.124    -460.462    -195.114
  O     -208.806    -462.011    -193.270
  O     -208.655    -459.508    -192.728
  H     -208.094    -462.036    -192.602
  H     -207.224    -459.342    -196.566
  H     -207.281    -458.606    -194.982
  H     -208.730    -458.701    -195.953

 6  7  8  9  10  11  12  13  14  15  26  29  33  34 0
 6-311+G(2d,p)
 ****
 36  38  39  40  41 0
 6-311+G(2d,p)
 ****
 1  2  3  4  5  16  17  18  19  20  21  22  23  24  25 0
 3-21G
 ****
 27  28  30  31  32  35  37  42  43  44  45  46  47 0
 3-21G
 ****
 48  49 0
 3-21G
 ****


