%nproc=1
%NoSave
%Mem=1900MB
#P OB98/GEN NMR

erre ene a

0 1
  C       -0.064      34.057     111.643
  O        0.268      34.488     110.339
  H       -1.149      33.938     111.708
  H        0.256      34.798     112.381
  H        0.412      33.095     111.852
  P        1.815      34.832     110.070
  C        3.452      36.425     111.329
  O        2.106      36.059     111.067
  C        3.493      37.710     112.150
  O        2.888      38.800     111.419
  C        2.733      37.642     113.472
  O        3.434      36.948     114.489
  C        2.611      39.124     113.779
  O        3.881      39.628     114.234
  C        2.255      39.683     112.386
  N        0.809      39.752     112.148
  C        0.188      40.978     112.411
  O        0.838      41.937     112.823
  N       -1.172      41.080     112.236
  C       -1.850      40.058     111.814
  N       -3.192      40.220     111.662
  C       -1.235      38.753     111.513
  C        0.081      38.671     111.699
  O        1.794      35.542     108.637
  O        2.769      33.691     110.182
  H        4.221      38.981     114.879
  H        2.682      35.929     108.438
  H       -1.843      37.926     111.176
  H        0.604      37.743     111.498
  H        2.679      40.685     112.243
  H        1.884      39.346     114.559
  H        1.728      37.225     113.337
  H        4.547      37.969     112.311
  H       -3.593      41.109     111.934
  H        3.961      36.574     110.370
  H       -3.822      39.449     111.485
  H        3.958      35.627     111.881
  P        2.567      36.041     115.493
  C        0.811      36.500     117.362
  O        1.737      37.044     116.427
  O        3.668      35.439     116.482
  O        1.760      34.967     114.832
  H        3.428      34.536     116.766
  H        0.343      37.295     117.904
  H        1.329      35.859     118.045
  H        0.066      35.937     116.840

 6  7  8  9  10  11  12  13  14  15  16  26  30  31  32  33  35 0
 6-311+G(2d,p)
 ****
 37  38 0
 6-311+G(2d,p)
 ****
 1  2  3  4  5  17  18  19  20  21  22  23  24  25 0
 3-21G
 ****
 27  28  29  34  36  39  40  41  42  43  44  45  46 0
 3-21G
 ****


