%nproc=1
%NoSave
%Mem=1900MB
#P OB98/GEN NMR

erre ene a

0 1
  C      263.041      41.533    -134.077
  O      262.841      42.913    -134.333
  P      262.471      43.343    -135.836
  C      260.490      42.674    -137.376
  O      261.403      42.268    -136.364
  C      260.088      41.498    -138.268
  O      261.269      40.992    -138.938
  C      259.435      40.337    -137.516
  O      258.415      39.792    -138.353
  C      260.558      39.325    -137.385
  O      260.058      37.999    -137.228
  C      261.338      39.575    -138.687
  N      262.720      39.115    -138.598
  C      262.931      37.734    -138.668
  O      261.972      36.965    -138.720
  N      264.218      37.260    -138.625
  C      265.200      38.082    -138.421
  N      266.455      37.563    -138.389
  C      265.007      39.532    -138.217
  C      263.758      39.976    -138.338
  O      263.798      42.976    -136.649
  O      262.086      44.777    -135.995
  H      260.808      37.375    -137.346
  H      263.930      43.591    -137.394
  H      265.856      40.168    -138.014
  H      263.526      41.027    -138.229
  H      260.855      39.064    -139.530
  H      261.179      39.567    -136.514
  H      259.005      40.640    -136.558
  H      259.412      41.875    -139.045
  H      266.561      36.564    -138.516
  H      260.968      43.431    -138.004
  H      267.281      38.127    -138.234
  H      259.609      43.125    -136.910
  P      257.037      39.356    -137.658
  C      255.221      40.648    -136.386
  O      256.560      40.648    -136.836
  O      257.562      38.403    -136.478
  O      256.010      38.665    -138.491
  H      256.805      38.014    -136.008
  H      255.073      41.512    -135.731
  H      255.006      39.737    -135.821
  H      254.541      40.734    -137.238
  H      263.279      41.393    -133.043
  H      263.847      41.171    -134.681
  H      262.148      40.993    -134.314

 3  4  5  6  7  8  9  10  11  12  13  21  23  27  28  29  30  32 0
 6-311+G(2d,p)
 ****
 34  35 0
 6-311+G(2d,p)
 ****
 1  2  14  15  16  17  18  19  20  22  24  25  26 0
 3-21G
 ****
 31  33  36  37  38  39  40  41  42  43  44  45  46 0
 3-21G
 ****


