%nproc=1
%NoSave
%Mem=1900MB
#P OB98/GEN NMR

erre ene a

0 1
  C     -230.603    -132.308    -255.087
  O     -229.788    -131.213    -255.483
  P     -228.345    -131.552    -256.106
  C     -227.085    -130.909    -253.931
  O     -227.420    -131.940    -254.854
  C     -226.328    -131.485    -252.739
  O     -227.119    -132.511    -252.108
  C     -225.006    -132.150    -253.088
  O     -223.962    -131.201    -253.250
  C     -224.775    -133.013    -251.856
  O     -224.208    -132.212    -250.804
  C     -226.203    -133.447    -251.486
  N     -226.961    -138.248    -250.058
  C     -226.647    -137.138    -249.302
  N     -226.542    -137.328    -247.967
  N     -226.446    -135.949    -249.802
  C     -226.620    -135.897    -251.146
  C     -226.929    -136.928    -252.008
  C     -227.098    -138.251    -251.442
  O     -227.311    -139.282    -252.073
  N     -227.036    -136.484    -253.296
  C     -226.829    -135.184    -253.218
  N     -226.541    -134.786    -251.932
  O     -227.793    -130.114    -256.541
  O     -228.357    -132.512    -257.246
  H     -224.675    -131.355    -250.810
  H     -227.141    -130.213    -257.260
  H     -227.119    -139.136    -249.620
  H     -226.877    -134.502    -254.054
  H     -226.371    -133.388    -250.406
  H     -224.084    -133.840    -252.038
  H     -226.814    -138.189    -247.509
  H     -225.107    -132.790    -253.971
  H     -226.350    -136.520    -247.391
  H     -226.178    -130.680    -252.010
  H     -228.002    -130.434    -253.573
  H     -226.477    -130.159    -254.443
  P     -222.755    -131.619    -254.227
  C     -221.330    -132.514    -252.247
  O     -221.988    -132.803    -253.467
  O     -221.755    -130.377    -254.122
  O     -223.171    -131.895    -255.633
  H     -221.213    -130.309    -254.935
  H     -221.886    -131.779    -251.657
  H     -220.327    -132.132    -252.459
  H     -221.244    -133.435    -251.665
  H     -231.527    -131.940    -254.693
  H     -230.096    -132.877    -254.336
  H     -230.799    -132.931    -255.934

 3  4  5  6  7  8  9  10  11  12  23  26  30  31  33  0
 6-311+G(2d,p)
 ****
 35  36  37  38 0
 6-311+G(2d,p)
 ****
 1  2  13  14  15  16  17  18  19  20  21  22  24  25  27  28  29 0
 3-21G
 ****
 32  34  39  40  41  42  43  44  45  46  47  48  49 0
 3-21G
 ****


