%nproc=1
%NoSave
%Mem=1900MB
#P OB98/GEN NMR

erre ene a

0 1
  C       17.760      73.298     135.926
  O       16.963      72.561     135.018
  H       18.411      73.966     135.357
  H       18.379      72.620     136.518
  H       17.124      73.898     136.582
  P       15.912      71.533     135.661
  C       16.218      69.781     137.543
  O       16.824      70.493     136.473
  C       17.045      68.551     137.905
  O       18.413      68.917     138.158
  C       16.574      67.822     139.157
  O       15.473      66.977     138.865
  C       17.819      67.024     139.508
  O       17.898      65.851     138.674
  C       18.955      68.000     139.146
  N       23.226      69.791     141.358
  C       23.039      68.920     140.344
  N       21.876      68.458     139.836
  C       20.828      68.987     140.487
  C       20.865      69.889     141.541
  C       22.136      70.303     141.972
  N       22.323      71.202     143.001
  N       19.589      70.208     141.957
  C       18.796      69.552     141.132
  N       19.497      68.771     140.250
  O       14.919      70.948     134.718
  O       15.289      72.428     136.835
  H       17.980      66.154     137.750
  H       15.979      72.974     137.250
  H       23.944      68.544     139.874
  H       17.715      69.622     141.123
  H       19.803      67.482     138.683
  H       17.814      66.679     140.543
  H       16.355      68.522     139.969
  H       17.044      67.880     137.037
  H       15.200      69.479     137.273
  H       23.259      71.312     143.358
  H       21.515      71.483     143.537
  H       16.160      70.462     138.398
  P       14.235      66.868     139.877
  C       13.742      65.642     142.082
  O       14.726      65.959     141.105
  O       12.951      66.433     139.260
  O       14.120      68.323     140.527
  H       13.181      68.567     140.650
  H       14.181      65.036     142.847
  H       12.940      65.106     141.619
  H       13.365      66.545     142.515

 6  7  8  9  10  11  12  13  14  15  25  28  32  33  34  35 0
 6-311+G(2d,p)
 ****
 36  39  40 0
 6-311+G(2d,p)
 ****
 1  2  3  4  5  16  17  18  19  20  21  22  23  24 0
 3-21G
 ****
 26  27  29  30  31  37  38  41  42  43  44  45  46  47 0
 3-21G
 ****
 48 0
 3-21G
 ****


