%nproc=1
%NoSave
%Mem=1900MB
#P OB98/GEN NMR

erre ene a

0 1
  C      300.163    -721.948     202.196
  O      300.793    -722.424     203.370
  H      300.733    -721.091     201.818
  H      299.144    -721.624     202.418
  H      300.150    -722.719     201.421
  P      300.270    -723.794     204.023
  C      302.332    -725.353     204.057
  O      301.523    -724.441     204.792
  C      303.761    -725.394     204.625
  O      304.421    -724.128     204.290
  C      303.824    -725.550     206.158
  O      305.046    -726.241     206.454
  C      303.908    -724.087     206.589
  O      304.253    -723.944     207.950
  C      304.890    -723.571     205.536
  N      304.994    -722.119     205.440
  C      305.905    -721.471     206.268
  O      306.639    -722.051     207.090
  N      305.961    -720.114     206.152
  C      305.229    -719.347     205.290
  O      305.347    -718.126     205.211
  C      304.273    -720.076     204.453
  C      304.209    -721.404     204.551
  O      299.547    -724.714     203.106
  O      299.341    -723.301     205.232
  H      298.396    -723.378     204.972
  H      303.751    -724.604     208.471
  H      306.626    -719.628     206.741
  H      303.671    -719.501     203.764
  H      303.528    -721.981     203.928
  H      305.886    -723.982     205.716
  H      302.927    -723.617     206.481
  H      302.979    -726.097     206.573
  H      304.315    -726.184     204.124
  H      302.357    -725.031     203.011
  H      301.883    -726.352     204.112
  P      305.182    -727.318     207.638
  C      304.182    -729.341     206.362
  O      305.346    -728.774     206.983
  O      304.100    -727.235     208.667
  O      306.621    -727.031     208.298
  H      306.610    -727.335     209.226
  H      304.423    -730.306     205.967
  H      303.854    -728.703     205.568
  H      303.402    -729.437     207.088

 6  7  8  9  10  11  12  13  14  15  16  27  31  32  33  34  35 0
 6-311+G(2d,p)
 ****
 36  37 0
 6-311+G(2d,p)
 ****
 1  2  3  4  5  17  18  19  20  21  22  23  24  25 0
 3-21G
 ****
 26  28  29  30  38  39  40  41  42  43  44  45 0
 3-21G
 ****


