%nproc=1
%NoSave
%Mem=1900MB
#P OB98/GEN NMR

erre ene a

0 1
  C        2.739     -66.416      -3.959
  O        2.121     -65.185      -3.627
  P        2.289     -64.623      -2.137
  C       -0.257     -64.131      -1.942
  O        1.065     -63.625      -1.854
  C       -1.244     -63.162      -1.288
  O       -1.057     -63.187       0.159
  C       -1.083     -61.704      -1.744
  O       -2.388     -61.107      -1.747
  C       -0.250     -61.103      -0.629
  O       -0.328     -59.687      -0.574
  C       -0.856     -61.823       0.579
  N       -0.012     -61.745       1.770
  C       -0.359     -60.808       2.738
  O       -1.323     -60.049       2.648
  N        0.487     -60.719       3.810
  C        1.664     -61.391       3.965
  O        2.435     -61.180       4.893
  C        1.978     -62.368       2.911
  C        1.140     -62.499       1.880
  O        3.554     -63.650      -2.252
  O        2.483     -65.671      -1.094
  H        0.274     -59.387       0.131
  H        4.356     -64.094      -1.919
  H        0.245     -60.052       4.527
  H        2.894     -62.935       3.013
  H        1.358     -63.197       1.079
  H       -1.846     -61.409       0.808
  H        0.801     -61.377      -0.772
  H       -0.615     -61.602      -2.727
  H       -2.263     -63.514      -1.489
  H       -0.307     -65.093      -1.430
  H       -0.517     -64.297      -2.993
  P       -2.736     -60.069      -2.922
  C       -3.016     -58.122      -1.202
  O       -3.574     -58.880      -2.253
  O       -3.833     -60.902      -3.740
  O       -1.553     -59.672      -3.742
  H       -4.472     -61.349      -3.161
  H       -1.937     -57.998      -1.323
  H       -3.217     -58.619      -0.250
  H       -3.485     -57.135      -1.191
  H        2.535     -66.653      -4.982
  H        2.352     -67.190      -3.330
  H        3.796     -66.334      -3.815

 3  4  5  6  7  8  9  10  11  12  13  23  28  29  30  31  32 0
 6-311+G(2d,p)
 ****
 33  34 0
 6-311+G(2d,p)
 ****
 1  2  14  15  16  17  18  19  20  21  22  24  25  26 0
 3-21G
 ****
 27  35  36  37  38  39  40  41  42  43  44  45 0
 3-21G
 ****


