%nproc=1
%NoSave
%Mem=1900MB
#P OB98/GEN NMR

erre ene a

0 1
  C      143.007     243.143    -191.712
  O      143.965     244.004    -192.335
  P      143.568     244.645    -193.750
  C      144.927     243.018    -195.264
  O      143.647     243.501    -194.869
  C      144.773     241.859    -196.254
  O      144.227     240.694    -195.609
  C      143.816     242.169    -197.391
  O      144.442     242.989    -198.361
  C      143.462     240.775    -197.898
  O      144.368     240.336    -198.923
  C      143.599     239.900    -196.631
  N      142.322     239.367    -196.178
  C      142.065     238.035    -196.511
  O      142.882     237.387    -197.171
  N      140.874     237.475    -196.111
  C      140.014     238.196    -195.459
  N      138.852     237.587    -195.091
  C      140.239     239.611    -195.110
  C      141.401     240.132    -195.499
  O      144.819     245.584    -194.091
  O      142.289     245.419    -193.725
  H      145.256     240.337    -198.508
  H      144.529     246.367    -194.591
  H      139.486     240.171    -194.569
  H      141.651     241.165    -195.288
  H      144.268     239.053    -196.825
  H      142.457     240.755    -198.334
  H      142.915     242.662    -197.000
  H      145.764     241.609    -196.655
  H      138.734     236.616    -195.350
  H      145.491     242.687    -194.387
  H      138.111     238.054    -194.588
  H      145.497     243.841    -195.708
  P      144.144     244.561    -198.317
  C      141.870     244.733    -199.494
  O      142.543     244.677    -198.255
  O      144.447     245.003    -199.828
  O      144.909     245.378    -197.330
  H      144.392     245.972    -199.911
  H      140.798     244.601    -199.318
  H      142.215     243.936    -200.157
  H      142.032     245.706    -199.965
  H      143.398     242.788    -190.782
  H      142.804     242.311    -192.354
  H      142.102     243.686    -191.535

 3  4  5  6  7  8  9  10  11  12  13  21  23  27  28  29  30  32 0
 6-311+G(2d,p)
 ****
 34  35 0
 6-311+G(2d,p)
 ****
 1  2  14  15  16  17  18  19  20  22  24  25  26 0
 3-21G
 ****
 31  33  36  37  38  39  40  41  42  43  44  45  46 0
 3-21G
 ****


