%nproc=1
%NoSave
%Mem=1900MB
#P OB98/GEN NMR

erre ene a

0 1
  C     -263.637    -708.698    -287.543
  O     -263.086    -707.671    -286.741
  H     -263.277    -709.662    -287.180
  H     -263.331    -708.580    -288.585
  H     -264.735    -708.687    -287.477
  P     -263.377    -706.150    -287.143
  C     -265.368    -704.517    -286.876
  O     -264.806    -705.771    -286.510
  C     -266.555    -704.166    -285.973
  O     -267.623    -705.131    -286.202
  C     -266.222    -704.207    -284.468
  O     -267.077    -703.263    -283.811
  C     -266.635    -705.631    -284.113
  O     -266.729    -705.804    -282.718
  C     -267.920    -705.757    -284.934
  N     -268.338    -707.141    -285.093
  C     -269.053    -707.698    -284.031
  O     -269.289    -707.024    -283.023
  N     -269.472    -709.002    -284.118
  C     -269.141    -709.717    -285.156
  N     -269.561    -711.005    -285.172
  C     -268.331    -709.186    -286.273
  C     -267.979    -707.900    -286.184
  O     -263.223    -705.822    -288.593
  O     -262.354    -705.311    -286.239
  H     -267.160    -705.024    -282.296
  H     -261.612    -704.993    -286.792
  H     -268.065    -709.819    -287.104
  H     -267.388    -707.424    -286.961
  H     -268.740    -705.192    -284.467
  H     -265.883    -706.346    -284.461
  H     -265.170    -703.992    -284.255
  H     -266.942    -703.183    -286.255
  H     -270.108    -711.332    -284.374
  H     -265.698    -704.594    -287.916
  H     -269.350    -711.655    -285.910
  H     -264.606    -703.730    -286.806
  P     -266.500    -701.988    -283.025
  C     -265.546    -699.710    -283.798
  O     -265.582    -701.115    -284.022
  O     -265.839    -702.307    -281.724
  O     -267.774    -701.035    -282.783
  H     -267.645    -700.545    -281.951
  H     -264.906    -699.250    -284.522
  H     -265.171    -699.515    -282.815
  H     -266.534    -699.309    -283.889

 6  7  8  9  10  11  12  13  14  15  16  26  30  31  32  33  35 0
 6-311+G(2d,p)
 ****
 37  38 0
 6-311+G(2d,p)
 ****
 1  2  3  4  5  17  18  19  20  21  22  23  24  25 0
 3-21G
 ****
 27  28  29  34  36  39  40  41  42  43  44  45  46 0
 3-21G
 ****


