%nproc=1
%NoSave
%Mem=1900MB
#P OB98/GEN NMR

erre ene a

0 1
  C       63.373    -505.318      30.197
  O       64.117    -504.233      30.725
  H       62.514    -504.922      29.651
  H       63.011    -505.970      30.995
  H       63.992    -505.894      29.497
  P       65.279    -504.557      31.780
  C       65.358    -505.349      34.238
  O       64.531    -504.930      33.153
  C       64.918    -504.681      35.544
  O       63.521    -504.945      35.796
  C       65.643    -505.204      36.775
  O       67.016    -504.848      36.840
  C       64.710    -504.800      37.909
  O       64.931    -503.469      38.377
  C       63.320    -504.878      37.220
  N       62.548    -506.026      37.697
  C       62.159    -505.975      39.045
  O       62.472    -505.038      39.804
  N       61.445    -507.035      39.507
  C       61.131    -508.167      38.792
  O       60.524    -509.102      39.273
  C       61.590    -508.171      37.382
  C       62.256    -507.118      36.916
  O       66.333    -503.498      31.940
  O       65.857    -505.972      31.284
  H       64.207    -503.260      38.996
  H       66.751    -506.153      31.683
  H       61.156    -507.019      40.471
  H       61.353    -509.052      36.789
  H       62.608    -507.105      35.883
  H       62.740    -503.977      37.419
  H       64.812    -505.469      38.769
  H       65.626    -506.300      36.742
  H       65.048    -503.599      35.441
  H       66.394    -505.046      34.011
  H       65.308    -506.442      34.334
  P       68.076    -505.592      37.760
  C       68.308    -506.121      40.303
  O       67.703    -505.306      39.308
  O       69.509    -505.516      37.346
  O       67.606    -507.139      37.601
  H       68.416    -507.703      37.628
  H       67.967    -505.815      41.270
  H       69.372    -506.018      40.250
  H       68.040    -507.144      40.138

 6  7  8  9  10  11  12  13  14  15  16  26  31  32  33  34  35 0
 6-311+G(2d,p)
 ****
 36  37 0
 6-311+G(2d,p)
 ****
 1  2  3  4  5  17  18  19  20  21  22  23  24  25 0
 3-21G
 ****
 27  28  29  30  38  39  40  41  42  43  44  45 0
 3-21G
 ****


