%nproc=1
%NoSave
%Mem=1900MB
#P OB98/GEN NMR

erre ene a

0 1
  C       83.203     122.255     138.054
  O       83.845     121.680     139.170
  P       83.278     120.338     139.838
  C       81.917     120.938     141.938
  O       81.882     120.732     140.527
  C       82.281     122.387     142.250
  O       81.431     123.310     141.519
  C       82.092     122.777     143.708
  O       82.928     122.159     144.661
  C       82.146     124.293     143.620
  O       83.490     124.765     143.567
  C       81.424     124.549     142.273
  N       80.070     125.061     142.466
  C       79.844     126.367     142.043
  O       80.711     127.078     141.533
  N       78.583     126.854     142.254
  C       77.562     126.194     142.879
  O       76.468     126.710     143.071
  C       77.863     124.826     143.315
  C       79.083     124.327     143.096
  O       84.232     119.620     140.732
  O       82.797     119.476     138.575
  H       83.824     124.810     144.483
  H       82.110     119.899     138.029
  H       78.402     127.803     141.968
  H       77.072     124.269     143.801
  H       79.331     123.317     143.413
  H       81.986     125.279     141.675
  H       81.671     124.769     144.488
  H       81.066     122.509     144.001
  H       83.309     122.561     141.916
  H       82.672     120.278     142.376
  H       80.944     120.668     142.367
  P       82.734     122.316     146.243
  C       84.632     123.765     147.252
  O       83.339     123.733     146.686
  O       83.070     121.129     147.085
  O       81.150     122.592     146.344
  H       80.819     122.231     147.187
  H       84.866     124.797     147.535
  H       85.376     123.424     146.527
  H       84.673     123.142     148.152
  H       83.728     123.139     137.757
  H       82.196     122.509     138.313
  H       83.197     121.554     137.245

 3  4  5  6  7  8  9  10  11  12  13  23  28  29  30  31  32 0
 6-311+G(2d,p)
 ****
 33  34 0
 6-311+G(2d,p)
 ****
 1  2  14  15  16  17  18  19  20  21  22  24  25  26  27 0
 3-21G
 ****
 35  36  37  38  39  40  41  42  43  44  45 0
 3-21G
 ****


