%nproc=1
%NoSave
%Mem=1900MB
#P OB98/GEN NMR

erre ene a

0 1
  C      497.343     224.507     407.693
  O      497.297     225.854     407.253
  H      498.330     224.284     408.114
  H      496.589     224.366     408.473
  H      497.129     223.831     406.864
  P      498.361     226.278     406.127
  C      500.815     227.141     406.198
  O      499.676     226.720     406.939
  C      501.788     227.861     407.135
  O      501.162     229.062     407.664
  C      502.198     227.043     408.349
  O      503.247     226.129     408.055
  C      502.660     228.137     409.294
  O      503.967     228.595     408.898
  C      501.609     229.231     409.042
  N      499.872     230.223     413.755
  C      501.059     230.484     413.156
  N      501.443     230.205     411.893
  C      500.439     229.608     411.222
  C      499.179     229.292     411.696
  C      498.905     229.622     413.034
  N      497.712     229.328     413.655
  N      498.431     228.660     410.715
  C      499.226     228.624     409.660
  N      500.462     229.153     409.922
  O      497.795     227.674     405.578
  O      498.604     225.282     405.047
  H      503.965     228.659     407.919
  H      498.234     227.912     404.740
  H      501.806     230.978     413.774
  H      498.959     228.214     408.691
  H      502.026     230.243     409.131
  H      502.743     227.802     410.329
  H      501.336     226.521     408.802
  H      502.662     228.176     406.552
  H      500.494     227.823     405.406
  H      497.667     229.471     414.652
  H      497.039     228.752     413.174
  H      501.308     226.274     405.757
  P      503.095     224.629     408.609
  C      504.153     223.334     410.609
  O      503.816     224.606     410.051
  O      504.101     223.800     407.682
  O      501.709     224.085     408.571
  H      503.777     222.896     407.542
  H      504.622     223.475     411.561
  H      504.826     222.823     409.952
  H      503.264     222.752     410.732

 6  7  8  9  10  11  12  13  14  15  25  28  32  33  34  35 0
 6-311+G(2d,p)
 ****
 36  39  40 0
 6-311+G(2d,p)
 ****
 1  2  3  4  5  16  17  18  19  20  21  22  23  24 0
 3-21G
 ****
 26  27  29  30  31  37  38  41  42  43  44  45  46  47 0
 3-21G
 ****
 48 0
 3-21G
 ****


