%nproc=1
%NoSave
%Mem=1900MB
#P OB98/GEN NMR

erre ene a

0 1
  C      392.419    -160.193    -141.702
  O      392.645    -158.954    -142.362
  P      391.385    -158.173    -142.966
  C      391.601    -158.805    -145.474
  O      391.748    -157.798    -144.482
  C      391.531    -158.197    -146.876
  O      390.366    -157.314    -146.945
  C      392.749    -157.360    -147.280
  O      392.935    -157.522    -148.687
  C      392.311    -155.947    -146.989
  O      393.083    -154.972    -147.704
  C      390.841    -156.027    -147.395
  N      388.994    -151.295    -148.021
  C      389.740    -152.076    -148.831
  N      390.190    -153.332    -148.595
  C      389.792    -153.758    -147.373
  C      389.066    -153.049    -146.433
  C      388.653    -151.759    -146.793
  N      387.889    -150.951    -145.983
  N      388.891    -153.805    -145.291
  C      389.508    -154.948    -145.534
  N      390.048    -154.979    -146.794
  O      391.441    -156.768    -142.207
  O      390.065    -158.844    -142.777
  H      393.973    -154.937    -147.301
  H      390.679    -156.682    -141.594
  H      390.001    -151.651    -149.802
  H      389.578    -155.778    -144.846
  H      390.710    -155.967    -148.481
  H      392.420    -155.729    -145.922
  H      393.678    -157.638    -146.750
  H      391.364    -159.006    -147.597
  H      390.671    -159.348    -145.280
  H      387.510    -150.105    -146.362
  H      387.473    -151.360    -145.149
  H      392.440    -159.503    -145.414
  P      394.434    -157.715    -149.217
  C      394.644    -155.295    -150.126
  O      394.649    -156.682    -150.423
  O      394.385    -159.148    -149.962
  O      395.470    -157.683    -148.141
  H      395.264    -159.557    -149.924
  H      395.331    -154.780    -150.809
  H      394.951    -155.091    -149.094
  H      393.635    -154.896    -150.280
  H      393.351    -160.588    -141.357
  H      391.969    -160.884    -142.384
  H      391.766    -160.039    -140.868

 3  4  5  6  7  8  9  10  11  12  22  25  29  30  31  32 0
 6-311+G(2d,p)
 ****
 33  36  37 0
 6-311+G(2d,p)
 ****
 1  2  13  14  15  16  17  18  19  20  21  23  24  26 0
 3-21G
 ****
 27  28  34  35  38  39  40  41  42  43  44  45  46  47  48 0
 3-21G
 ****


