%nproc=1
%NoSave
%Mem=1900MB
#P OB98/GEN NMR

erre ene a

0 1
  C       78.840     306.413     -65.540
  O       77.543     306.713     -66.019
  H       79.431     307.332     -65.526
  H       79.323     305.694     -66.205
  H       78.793     306.009     -64.525
  P       76.452     305.542     -65.924
  C       74.799     306.935     -64.490
  O       75.634     305.789     -64.566
  C       73.335     306.515     -64.388
  O       73.142     305.630     -63.262
  C       72.364     307.674     -64.189
  O       72.036     308.305     -65.419
  C       71.165     306.934     -63.615
  O       70.459     306.257     -64.673
  C       71.839     305.917     -62.686
  N       69.960     305.811     -57.979
  C       69.493     305.214     -59.135
  N       68.358     304.492     -59.022
  N       70.082     305.317     -60.297
  C       71.202     306.079     -60.263
  C       71.765     306.720     -59.181
  C       71.107     306.591     -57.901
  O       71.490     307.078     -56.841
  N       72.906     307.387     -59.533
  C       73.024     307.171     -60.828
  N       72.012     306.387     -61.321
  O       77.331     304.242     -65.591
  O       75.624     305.337     -67.147
  H       69.782     305.699     -64.249
  H       76.935     303.471     -66.042
  H       69.462     305.709     -57.112
  H       73.821     307.552     -61.451
  H       71.285     304.972     -62.633
  H       70.451     307.603     -63.132
  H       67.828     304.414     -58.169
  H       72.738     308.391     -63.451
  H       68.014     304.018     -59.847
  H       73.084     305.951     -65.296
  H       74.938     307.543     -65.388
  H       75.084     307.523     -63.612
  P       72.012     309.913     -65.445
  C       74.272     310.244     -66.682
  O       73.551     310.367     -65.461
  O       71.530     310.290     -63.966
  O       71.138     310.513     -66.491
  H       71.132     311.181     -63.960
  H       75.277     310.583     -66.539
  H       73.800     310.838     -67.437
  H       74.282     309.219     -66.989

 6  7  8  9  10  11  12  13  14  15  26  29  33  34 0
 6-311+G(2d,p)
 ****
 36  38  39  40  41 0
 6-311+G(2d,p)
 ****
 1  2  3  4  5  16  17  18  19  20  21  22  23  24  25 0
 3-21G
 ****
 27  28  30  31  32  35  37  42  43  44  45  46  47 0
 3-21G
 ****
 48  49 0
 3-21G
 ****


