%nproc=1
%NoSave
%Mem=1900MB
#P OB98/GEN NMR

erre ene a

0 1
  C       23.246     366.306    -139.204
  O       22.278     365.366    -138.785
  H       24.000     365.788    -139.803
  H       23.740     366.753    -138.338
  H       22.788     367.089    -139.817
  P       20.974     365.892    -138.017
  C       19.308     366.091    -139.979
  O       19.704     365.350    -138.830
  C       18.108     365.415    -140.641
  O       18.499     364.146    -141.214
  C       16.964     365.108    -139.681
  O       16.229     366.267    -139.371
  C       16.203     364.057    -140.482
  O       15.357     364.680    -141.462
  C       17.351     363.275    -141.153
  N       17.669     362.026    -140.462
  C       17.440     360.851    -141.170
  O       16.967     360.823    -142.302
  N       17.751     359.688    -140.510
  C       18.151     359.585    -139.210
  O       18.326     358.512    -138.638
  C       18.351     360.861    -138.503
  C       18.103     362.001    -139.152
  O       20.950     367.351    -137.703
  O       20.944     365.009    -136.678
  H       14.805     363.968    -141.838
  H       21.235     365.558    -135.924
  H       17.580     358.825    -141.005
  H       18.678     360.819    -137.472
  H       18.241     362.950    -138.643
  H       17.087     363.035    -142.193
  H       15.564     363.441    -139.846
  H       17.359     364.637    -138.771
  H       17.760     366.063    -141.464
  H       20.145     366.121    -140.682
  H       19.058     367.112    -139.671
  P       15.889     366.607    -137.841
  C       17.885     368.127    -137.271
  O       16.481     368.063    -137.518
  O       16.247     365.548    -136.855
  O       14.310     366.861    -137.852
  H       13.870     366.215    -137.264
  H       18.166     369.139    -137.069
  H       18.415     367.775    -138.131
  H       18.127     367.514    -136.428

 6  7  8  9  10  11  12  13  14  15  16  26  31  32  33  34  35 0
 6-311+G(2d,p)
 ****
 36  37 0
 6-311+G(2d,p)
 ****
 1  2  3  4  5  17  18  19  20  21  22  23  24  25 0
 3-21G
 ****
 27  28  29  30  38  39  40  41  42  43  44  45 0
 3-21G
 ****


