%nproc=1
%NoSave
%Mem=1900MB
#P OB98/GEN NMR

erre ene a

0 1
  C     -559.790      48.684     271.310
  O     -559.571      49.122     269.982
  H     -559.113      47.848     271.520
  H     -560.820      48.344     271.432
  H     -559.574      49.495     272.016
  P     -560.492      50.334     269.473
  C     -559.188      52.196     270.726
  O     -560.399      51.467     270.608
  C     -559.274      53.504     269.944
  O     -560.395      54.301     270.392
  C     -558.038      54.388     270.063
  O     -557.023      53.979     269.159
  C     -558.618      55.755     269.712
  O     -558.741      55.930     268.284
  C     -559.995      55.696     270.376
  N     -559.080      59.792     273.180
  C     -558.990      59.606     271.820
  N     -558.540      60.664     271.103
  N     -559.305      58.494     271.212
  C     -559.709      57.527     272.062
  C     -559.853      57.586     273.430
  C     -559.525      58.837     274.079
  O     -559.644      59.080     275.282
  N     -560.306      56.395     273.936
  C     -560.399      55.603     272.882
  N     -560.030      56.237     271.729
  O     -561.985      49.771     269.638
  O     -560.231      50.795     268.080
  H     -559.365      55.269     267.936
  H     -562.554      50.170     268.955
  H     -558.835      60.680     273.589
  H     -560.719      54.572     272.908
  H     -560.759      56.241     269.798
  H     -557.985      56.565     270.075
  H     -557.981      61.391     271.520
  H     -557.667      54.403     271.095
  H     -558.453      60.532     270.099
  H     -559.456      53.246     268.891
  H     -558.367      51.590     270.321
  H     -558.991      52.399     271.779
  P     -555.587      53.618     269.770
  C     -555.747      51.036     269.439
  O     -555.701      52.129     270.360
  O     -555.495      54.523     271.088
  O     -554.433      53.858     268.853
  H     -554.575      54.588     271.393
  H     -555.822      50.116     269.981
  H     -554.855      51.030     268.848
  H     -556.598      51.144     268.799

 6  7  8  9  10  11  12  13  14  15  26  29  33  34 0
 6-311+G(2d,p)
 ****
 36  38  39  40  41 0
 6-311+G(2d,p)
 ****
 1  2  3  4  5  16  17  18  19  20  21  22  23  24  25 0
 3-21G
 ****
 27  28  30  31  32  35  37  42  43  44  45  46  47 0
 3-21G
 ****
 48  49 0
 3-21G
 ****


