%nproc=1
%NoSave
%Mem=1900MB
#P OB98/GEN NMR

erre ene a

0 1
  C       13.894    -149.311     445.708
  O       12.741    -149.217     444.896
  H       14.744    -149.587     445.078
  H       13.749    -150.089     446.462
  H       14.109    -148.355     446.193
  P       11.454    -148.509     445.544
  C       11.728    -146.173     444.450
  O       11.796    -146.943     445.639
  C       11.571    -144.692     444.785
  O       10.261    -144.437     445.337
  C       12.576    -144.170     445.808
  O       13.813    -143.827     445.198
  C       11.849    -142.932     446.308
  O       11.976    -141.868     445.337
  C       10.395    -143.417     446.366
  N        7.626    -142.707     450.554
  C        7.835    -141.868     449.478
  N        7.230    -140.661     449.530
  N        8.578    -142.175     448.448
  C        9.141    -143.402     448.544
  C        9.016    -144.322     449.558
  C        8.180    -143.975     450.684
  O        7.951    -144.689     451.657
  N        9.737    -145.457     449.305
  C       10.319    -145.216     448.147
  N        9.993    -143.981     447.645
  O       11.510    -149.006     447.068
  O       10.151    -148.856     444.909
  H       12.926    -141.758     445.159
  H       10.854    -149.717     447.192
  H        7.054    -142.416     451.328
  H       10.976    -145.901     447.627
  H        9.682    -142.621     446.131
  H       12.260    -142.553     447.245
  H        6.663    -140.353     450.305
  H       12.715    -144.875     446.637
  H        7.368    -140.032     448.751
  H       11.644    -144.126     443.849
  H       10.869    -146.505     443.855
  H       12.646    -146.329     443.873
  P       15.071    -143.528     446.147
  C       16.516    -145.534     445.364
  O       15.787    -144.937     446.428
  O       14.378    -143.171     447.546
  O       15.964    -142.430     445.686
  H       14.512    -142.227     447.751
  H       16.935    -146.461     445.695
  H       17.303    -144.877     445.058
  H       15.859    -145.714     444.538

 6  7  8  9  10  11  12  13  14  15  26  29  33  34 0
 6-311+G(2d,p)
 ****
 36  38  39  40  41 0
 6-311+G(2d,p)
 ****
 1  2  3  4  5  16  17  18  19  20  21  22  23  24  25 0
 3-21G
 ****
 27  28  30  31  32  35  37  42  43  44  45  46  47 0
 3-21G
 ****
 48  49 0
 3-21G
 ****


