%nproc=1
%NoSave
%Mem=1900MB
#P OB98/GEN NMR

erre ene a

0 1
  C      156.964     643.326    -297.818
  O      157.067     643.516    -296.422
  H      157.500     642.417    -298.092
  H      157.413     644.176    -298.345
  H      155.914     643.219    -298.112
  P      156.193     644.704    -295.787
  C      153.853     643.500    -295.771
  O      154.702     644.487    -296.338
  C      152.898     644.120    -294.753
  O      152.002     645.027    -295.451
  C      152.037     643.094    -294.011
  O      151.851     643.556    -292.668
  C      150.713     643.148    -294.749
  O      149.628     642.687    -293.943
  C      150.650     644.628    -295.147
  N      149.750     644.864    -296.280
  C      148.411     645.104    -295.982
  O      148.023     645.100    -294.809
  N      147.526     645.304    -297.011
  C      147.931     645.208    -298.234
  N      147.002     645.391    -299.211
  C      149.334     644.912    -298.604
  C      150.179     644.764    -297.584
  O      156.722     645.974    -296.601
  O      156.307     644.832    -294.300
  H      149.393     643.397    -293.309
  H      156.807     645.812    -297.556
  H      149.622     644.830    -299.639
  H      151.230     644.555    -297.759
  H      150.302     645.243    -294.304
  H      150.759     642.515    -295.642
  H      152.481     642.095    -293.999
  H      153.483     644.727    -294.051
  H      146.049     645.568    -298.919
  H      154.453     642.721    -295.283
  H      147.192     645.288    -300.200
  H      153.291     643.034    -296.587
  P      152.976     643.251    -291.560
  C      154.239     645.504    -291.750
  O      154.295     644.090    -291.913
  O      153.194     641.809    -291.241
  O      152.415     644.026    -290.270
  H      152.572     643.461    -289.489
  H      155.182     645.932    -292.020
  H      154.021     645.737    -290.729
  H      153.472     645.905    -292.379

 6  7  8  9  10  11  12  13  14  15  16  26  30  31  32  33  35 0
 6-311+G(2d,p)
 ****
 37  38 0
 6-311+G(2d,p)
 ****
 1  2  3  4  5  17  18  19  20  21  22  23  24  25 0
 3-21G
 ****
 27  28  29  34  36  39  40  41  42  43  44  45  46 0
 3-21G
 ****


