%nproc=1
%NoSave
%Mem=1900MB
#P OB98/GEN NMR

erre ene a

0 1
  C     -829.158     634.523     736.685
  O     -828.152     635.434     737.101
  H     -829.603     634.056     737.567
  H     -828.733     633.729     736.061
  H     -829.939     635.053     736.135
  P     -827.242     636.119     735.974
  C     -825.525     638.039     736.107
  O     -826.722     637.484     736.624
  C     -825.498     639.556     736.306
  O     -826.571     640.167     735.554
  C     -825.724     639.964     737.754
  O     -824.549     639.770     738.526
  C     -826.143     641.422     737.576
  O     -825.015     642.273     737.373
  C     -827.014     641.334     736.296
  N     -828.446     641.241     736.585
  C     -828.956     642.245     737.417
  O     -828.229     643.143     737.845
  N     -830.299     642.187     737.743
  C     -831.043     641.239     737.282
  N     -832.357     641.258     737.651
  C     -830.548     640.169     736.401
  C     -829.246     640.226     736.102
  O     -827.840     636.270     734.621
  O     -825.915     635.202     735.948
  H     -824.495     642.218     738.195
  H     -826.021     634.475     735.311
  H     -831.204     639.387     736.037
  H     -828.803     639.484     735.457
  H     -826.860     642.201     735.650
  H     -826.695     641.787     738.452
  H     -826.570     639.422     738.184
  H     -824.539     639.939     735.923
  H     -832.669     641.987     738.264
  H     -825.473     637.803     735.037
  H     -833.044     640.606     737.291
  H     -824.643     637.586     736.590
  P     -824.590     639.918     740.127
  C     -823.036     639.242     742.068
  O     -823.224     639.252     740.654
  O     -825.842     639.419     740.777
  O     -824.338     641.475     740.337
  H     -825.136     642.015     740.118
  H     -822.100     638.778     742.300
  H     -823.830     638.693     742.530
  H     -823.036     640.247     742.435

 6  7  8  9  10  11  12  13  14  15  16  26  30  31  32  33  35 0
 6-311+G(2d,p)
 ****
 37  38 0
 6-311+G(2d,p)
 ****
 1  2  3  4  5  17  18  19  20  21  22  23  24  25 0
 3-21G
 ****
 27  28  29  34  36  39  40  41  42  43  44  45  46 0
 3-21G
 ****


