%nproc=1
%NoSave
%Mem=1900MB
#P OB98/GEN NMR

erre ene a

0 1
  C     -165.585      37.875    -286.160
  O     -166.097      38.702    -285.108
  P     -165.128      39.047    -283.881
  C     -166.421      37.805    -281.995
  O     -166.005      39.050    -282.540
  C     -167.629      38.004    -281.077
  O     -168.835      38.270    -281.830
  C     -167.941      36.795    -280.205
  O     -167.129      36.766    -279.039
  C     -169.385      37.074    -279.824
  O     -169.433      38.032    -278.748
  C     -169.950      37.684    -281.112
  N     -174.330      35.327    -282.036
  C     -174.015      36.284    -281.090
  N     -175.020      36.677    -280.277
  N     -172.825      36.808    -280.955
  C     -171.927      36.336    -281.849
  C     -172.116      35.387    -282.829
  C     -173.432      34.802    -282.959
  O     -173.763      33.940    -283.767
  N     -170.963      35.161    -283.533
  C     -170.082      35.984    -282.996
  N     -170.616      36.706    -281.959
  O     -164.816      40.603    -284.102
  O     -163.877      38.233    -283.839
  H     -170.376      38.209    -278.572
  H     -163.944      40.822    -283.721
  H     -175.259      34.950    -282.091
  H     -169.055      36.093    -283.322
  H     -170.672      38.485    -280.914
  H     -169.904      36.178    -279.469
  H     -175.969      36.351    -280.359
  H     -167.874      35.864    -280.780
  H     -174.817      37.403    -279.601
  H     -167.427      38.870    -280.431
  H     -165.603      37.341    -281.437
  H     -166.647      37.118    -282.814
  P     -166.757      35.332    -278.422
  C     -167.106      35.939    -275.923
  O     -166.195      35.615    -276.952
  O     -165.460      34.911    -279.261
  O     -167.838      34.310    -278.523
  H     -165.426      33.942    -279.357
  H     -166.573      35.939    -274.969
  H     -167.915      35.204    -275.875
  H     -167.523      36.936    -276.091
  H     -166.342      37.733    -286.903
  H     -165.297      36.926    -285.759
  H     -164.734      38.348    -286.604

 3  4  5  6  7  8  9  10  11  12  23  26  30  31 0
 6-311+G(2d,p)
 ****
 33  35  36  37  38 0
 6-311+G(2d,p)
 ****
 1  2  13  14  15  16  17  18  19  20  21  22  24  25 0
 3-21G
 ****
 27  28  29  32  34  39  40  41  42  43  44  45  46  47  48  49 0
 3-21G
 ****


