%nproc=1
%NoSave
%Mem=1900MB
#P OB98/GEN NMR

erre ene a

0 1
  C     -575.412     239.242     252.531
  O     -575.577     238.769     253.854
  P     -577.022     238.305     254.361
  C     -577.261     240.020     256.270
  O     -577.745     239.588     254.998
  C     -578.357     240.778     257.029
  O     -578.868     241.865     256.217
  C     -579.569     239.923     257.380
  O     -579.286     239.076     258.479
  C     -580.612     241.000     257.646
  O     -580.472     241.520     258.980
  C     -580.240     242.073     256.609
  N     -584.302     244.193     254.353
  C     -583.786     244.320     255.594
  N     -582.718     243.697     256.137
  C     -582.185     242.831     255.259
  C     -582.627     242.556     253.975
  C     -583.723     243.301     253.513
  N     -584.220     243.220     252.220
  N     -581.837     241.580     253.394
  C     -580.959     241.266     254.312
  N     -581.088     242.037     255.430
  O     -577.039     237.081     255.221
  O     -577.846     238.065     253.010
  H     -580.492     240.760     259.592
  H     -578.129     237.132     252.975
  H     -584.286     245.041     256.241
  H     -580.197     240.504     254.211
  H     -580.302     243.085     257.026
  H     -581.638     240.624     257.554
  H     -579.874     239.329     256.511
  H     -577.902     241.204     257.935
  H     -576.402     240.677     256.113
  H     -584.917     243.907     251.964
  H     -583.628     242.800     251.500
  H     -576.934     239.149     256.846
  P     -580.424     238.107     259.044
  C     -581.296     239.353     261.113
  O     -581.524     239.033     259.753
  O     -579.935     236.957     259.871
  O     -581.183     237.599     257.727
  H     -581.502     236.694     257.867
  H     -581.563     238.511     261.742
  H     -581.927     240.210     261.383
  H     -580.242     239.617     261.285
  H     -574.387     239.505     252.371
  H     -576.029     240.103     252.381
  H     -575.695     238.476     251.840

 3  4  5  6  7  8  9  10  11  12  22  25  29  30  31  32 0
 6-311+G(2d,p)
 ****
 33  36  37 0
 6-311+G(2d,p)
 ****
 1  2  13  14  15  16  17  18  19  20  21  23  24  26 0
 3-21G
 ****
 27  28  34  35  38  39  40  41  42  43  44  45  46  47  48 0
 3-21G
 ****


