%nproc=1
%NoSave
%Mem=1900MB
#P OB98/GEN NMR

erre ene a

0 1
  C     1291.838    -199.601     574.238
  O     1291.167    -200.790     573.875
  H     1292.455    -199.262     573.398
  H     1292.479    -199.781     575.097
  H     1291.107    -198.821     574.472
  P     1290.283    -201.505     574.994
  C     1290.773    -203.043     577.048
  O     1291.313    -202.252     575.987
  C     1291.728    -204.181     577.374
  O     1293.024    -203.645     577.739
  C     1291.276    -205.030     578.553
  O     1290.293    -205.980     578.204
  C     1292.604    -205.705     578.931
  O     1292.836    -206.873     578.127
  C     1293.646    -204.611     578.623
  N     1294.129    -203.983     579.856
  C     1295.046    -204.741     580.587
  O     1295.438    -205.849     580.243
  N     1295.472    -204.179     581.759
  C     1295.056    -202.991     582.293
  O     1295.433    -202.565     583.367
  C     1294.083    -202.246     581.481
  C     1293.654    -202.766     580.326
  O     1289.577    -202.704     574.203
  O     1289.289    -200.623     575.668
  H     1288.635    -202.492     574.067
  H     1292.248    -207.574     578.485
  H     1296.129    -204.711     582.300
  H     1293.714    -201.302     581.866
  H     1292.916    -202.245     579.712
  H     1294.494    -205.028     578.087
  H     1292.605    -206.026     579.970
  H     1290.967    -204.397     579.397
  H     1291.846    -204.799     576.464
  H     1289.800    -203.444     576.747
  H     1290.628    -202.389     577.920
  P     1289.774    -206.960     579.383
  C     1290.595    -209.273     580.298
  O     1290.714    -208.241     579.333
  O     1288.378    -207.444     578.750
  O     1289.635    -206.277     580.702
  H     1288.401    -207.423     577.759
  H     1291.312    -210.040     580.091
  H     1289.609    -209.687     580.258
  H     1290.774    -208.871     581.274

 6  7  8  9  10  11  12  13  14  15  16  27  31  32  33  34  35 0
 6-311+G(2d,p)
 ****
 36  37 0
 6-311+G(2d,p)
 ****
 1  2  3  4  5  17  18  19  20  21  22  23  24  25 0
 3-21G
 ****
 26  28  29  30  38  39  40  41  42  43  44  45 0
 3-21G
 ****


