%nproc=1
%NoSave
%Mem=1900MB
#P OB98/GEN NMR

erre ene a

0 1
  C     -297.700     185.040     -67.845
  O     -298.029     185.896     -68.940
  P     -298.451     187.413     -68.652
  C     -298.432     188.078     -71.145
  O     -299.195     188.005     -69.948
  C     -298.403     186.715     -71.862
  O     -299.761     186.231     -72.046
  C     -297.733     186.788     -73.243
  O     -296.722     185.795     -73.425
  C     -298.905     186.728     -74.208
  O     -298.541     186.254     -75.493
  C     -299.940     185.896     -73.433
  N     -301.308     186.158     -73.897
  C     -301.886     185.191     -74.705
  O     -301.282     184.194     -75.102
  N     -303.174     185.435     -75.106
  C     -303.890     186.565     -74.843
  O     -305.024     186.757     -75.263
  C     -303.201     187.582     -74.033
  C     -301.961     187.336     -73.603
  O     -297.386     188.289     -68.081
  O     -299.665     187.252     -67.609
  H     -298.033     185.421     -75.386
  H     -299.589     187.969     -66.950
  H     -303.613     184.733     -75.680
  H     -303.732     188.501     -73.822
  H     -301.429     188.070     -73.015
  H     -299.754     184.826     -73.558
  H     -299.298     187.743     -74.337
  H     -297.201     187.734     -73.382
  H     -297.868     186.018     -71.214
  H     -297.412     188.374     -70.907
  H     -298.841     188.866     -71.787
  P     -295.193     186.112     -73.769
  C     -294.297     184.024     -72.511
  O     -294.378     184.735     -73.733
  O     -294.575     187.229     -72.998
  O     -295.241     186.473     -75.325
  H     -294.637     187.223     -75.503
  H     -293.437     183.353     -72.556
  H     -295.203     183.437     -72.372
  H     -294.169     184.709     -71.666
  H     -297.443     184.070     -68.216
  H     -298.542     184.960     -67.189
  H     -296.868     185.449     -67.310

 3  4  5  6  7  8  9  10  11  12  13  23  28  29  30  31  32 0
 6-311+G(2d,p)
 ****
 33  34 0
 6-311+G(2d,p)
 ****
 1  2  14  15  16  17  18  19  20  21  22  24  25  26  27 0
 3-21G
 ****
 35  36  37  38  39  40  41  42  43  44  45 0
 3-21G
 ****


