%nproc=1
%NoSave
%Mem=1900MB
#P OB98/GEN NMR

erre ene a

0 1
  C     -420.714    -605.690    -217.443
  O     -421.998    -606.050    -217.912
  H     -420.407    -604.766    -217.942
  H     -419.987    -606.475    -217.674
  H     -420.745    -605.515    -216.364
  P     -422.613    -607.418    -217.341
  C     -425.004    -606.963    -216.491
  O     -424.190    -607.291    -217.614
  C     -425.127    -605.446    -216.350
  O     -425.716    -604.913    -217.567
  C     -426.014    -605.009    -215.177
  O     -425.477    -603.815    -214.606
  C     -427.338    -604.694    -215.849
  O     -428.136    -603.797    -215.076
  C     -426.865    -604.135    -217.193
  N     -431.017    -601.842    -219.036
  C     -430.086    -601.442    -218.145
  N     -428.991    -602.115    -217.725
  C     -428.881    -603.288    -218.372
  C     -429.745    -603.828    -219.306
  C     -430.874    -603.049    -219.630
  N     -431.849    -603.457    -220.511
  N     -429.313    -605.074    -219.705
  C     -428.192    -605.280    -219.034
  N     -427.905    -604.235    -218.202
  O     -422.236    -607.756    -215.938
  O     -422.154    -608.477    -218.451
  H     -428.207    -604.152    -214.165
  H     -422.323    -608.143    -219.352
  H     -430.244    -600.465    -217.701
  H     -427.570    -606.170    -219.100
  H     -426.571    -603.080    -217.131
  H     -427.917    -605.612    -215.994
  H     -426.116    -605.772    -214.411
  H     -424.120    -605.017    -216.268
  H     -424.575    -607.386    -215.577
  H     -432.621    -602.835    -220.686
  H     -431.755    -604.350    -220.968
  H     -425.992    -607.414    -216.650
  P     -424.797    -603.885    -213.159
  C     -423.651    -601.577    -213.273
  O     -424.612    -602.384    -212.605
  O     -423.587    -604.749    -213.052
  O     -425.986    -604.443    -212.237
  H     -425.618    -605.106    -211.608
  H     -423.619    -600.609    -212.818
  H     -423.923    -601.478    -214.303
  H     -422.687    -602.037    -213.201

 6  7  8  9  10  11  12  13  14  15  25  28  32  33  34  35 0
 6-311+G(2d,p)
 ****
 36  39  40 0
 6-311+G(2d,p)
 ****
 1  2  3  4  5  16  17  18  19  20  21  22  23  24 0
 3-21G
 ****
 26  27  29  30  31  37  38  41  42  43  44  45  46  47 0
 3-21G
 ****
 48 0
 3-21G
 ****


