%nproc=1
%NoSave
%Mem=1900MB
#P OB98/GEN NMR

erre ene a

0 1
  C      819.855    -730.914    -123.864
  O      819.442    -729.716    -123.244
  H      820.610    -730.683    -124.621
  H      818.997    -731.383    -124.361
  H      820.285    -731.609    -123.135
  P      818.643    -729.839    -121.856
  C      816.817    -728.133    -122.548
  O      817.866    -728.452    -121.646
  C      817.105    -726.811    -123.260
  O      818.225    -727.018    -124.179
  C      815.921    -726.267    -124.089
  O      815.913    -724.837    -124.000
  C      816.301    -726.656    -125.505
  O      815.666    -725.831    -126.474
  C      817.818    -726.487    -125.452
  N      820.779    -725.736    -129.436
  C      820.445    -724.892    -128.392
  N      820.931    -723.628    -128.443
  N      819.701    -725.249    -127.381
  C      819.302    -726.553    -127.451
  C      819.552    -727.486    -128.426
  C      820.367    -727.065    -129.545
  O      820.673    -727.747    -130.516
  N      818.910    -728.666    -128.148
  C      818.260    -728.442    -127.024
  N      818.464    -727.170    -126.560
  O      819.822    -729.781    -120.772
  O      817.812    -731.068    -121.709
  H      815.973    -724.914    -126.349
  H      820.092    -730.685    -120.523
  H      821.338    -725.402    -130.200
  H      817.618    -729.156    -126.519
  H      818.128    -725.431    -125.499
  H      816.022    -727.698    -125.695
  H      821.536    -723.287    -129.171
  H      814.950    -726.666    -123.782
  H      820.729    -723.014    -127.660
  H      817.427    -726.075    -122.521
  H      815.880    -728.030    -121.983
  H      816.699    -728.946    -123.267
  P      814.576    -724.120    -123.495
  C      814.504    -722.110    -125.148
  O      814.684    -722.549    -123.815
  O      814.708    -724.184    -121.905
  O      813.317    -724.780    -123.968
  H      813.822    -724.293    -121.502
  H      814.607    -721.046    -125.190
  H      813.528    -722.388    -125.486
  H      815.242    -722.565    -125.776

 6  7  8  9  10  11  12  13  14  15  26  29  33  34 0
 6-311+G(2d,p)
 ****
 36  38  39  40  41 0
 6-311+G(2d,p)
 ****
 1  2  3  4  5  16  17  18  19  20  21  22  23  24  25 0
 3-21G
 ****
 27  28  30  31  32  35  37  42  43  44  45  46  47 0
 3-21G
 ****
 48  49 0
 3-21G
 ****


