%nproc=1
%NoSave
%Mem=1900MB
#P OB98/GEN NMR

erre ene a

0 1
  C      -45.449      -9.118    -227.441
  O      -45.698      -8.572    -226.149
  P      -45.408      -9.507    -224.879
  C      -44.338      -7.600    -223.427
  O      -45.358      -8.571    -223.580
  C      -44.549      -6.769    -222.149
  O      -45.760      -5.982    -222.309
  C      -44.760      -7.578    -220.873
  O      -44.518      -6.726    -219.746
  C      -46.237      -7.903    -220.953
  O      -46.758      -8.295    -219.685
  C      -46.831      -6.607    -221.551
  N      -48.002      -6.839    -222.421
  C      -49.198      -7.237    -221.829
  O      -49.343      -7.412    -220.619
  N      -50.244      -7.476    -222.683
  C      -50.222      -7.318    -224.037
  O      -51.163      -7.629    -224.760
  C      -48.982      -6.762    -224.594
  C      -47.944      -6.563    -223.778
  O      -43.887      -9.963    -225.094
  O      -46.334     -10.672    -224.764
  H      -47.730      -8.414    -219.810
  H      -43.855     -10.895    -225.388
  H      -51.097      -7.831    -222.273
  H      -48.952      -6.560    -225.657
  H      -47.013      -6.171    -224.179
  H      -47.144      -5.915    -220.759
  H      -46.392      -8.739    -221.641
  H      -44.145      -8.477    -220.798
  H      -43.716      -6.071    -222.033
  H      -44.309      -6.951    -224.306
  H      -43.361      -8.100    -223.378
  P      -43.099      -6.833    -219.013
  C      -42.342      -4.486    -219.738
  O      -42.668      -5.330    -218.651
  O      -42.064      -7.655    -219.707
  O      -43.479      -7.444    -217.578
  H      -42.686      -7.824    -217.163
  H      -42.576      -3.453    -219.463
  H      -42.909      -4.750    -220.636
  H      -41.272      -4.565    -219.951
  H      -45.685      -8.389    -228.188
  H      -46.058      -9.986    -227.585
  H      -44.417      -9.389    -227.521

 3  4  5  6  7  8  9  10  11  12  13  23  28  29  30  31  32 0
 6-311+G(2d,p)
 ****
 33  34 0
 6-311+G(2d,p)
 ****
 1  2  14  15  16  17  18  19  20  21  22  24  25  26  27 0
 3-21G
 ****
 35  36  37  38  39  40  41  42  43  44  45 0
 3-21G
 ****


