%nproc=1
%NoSave
%Mem=1900MB
#P OB98/GEN NMR

erre ene a

0 1
  C      226.162     183.606     257.132
  O      226.878     183.052     258.218
  H      225.132     183.237     257.169
  H      226.611     183.299     256.183
  H      226.149     184.696     257.208
  P      228.438     183.420     258.319
  C      229.074     181.407     256.798
  O      229.140     182.814     257.008
  C      230.412     180.907     256.262
  O      230.748     181.611     255.042
  C      231.585     181.144     257.206
  O      231.630     180.194     258.256
  C      232.758     181.017     256.244
  O      233.129     179.644     256.045
  C      232.188     181.630     254.940
  N      232.703     182.970     254.695
  C      234.032     183.039     254.271
  O      234.740     182.042     254.116
  N      234.530     184.299     254.076
  C      233.862     185.470     254.293
  O      234.395     186.565     254.168
  C      232.462     185.333     254.722
  C      231.956     184.112     254.909
  O      228.958     182.474     259.501
  O      228.732     184.861     258.576
  H      229.062     182.994     260.321
  H      233.883     179.652     255.421
  H      235.493     184.370     253.783
  H      231.897     186.246     254.897
  H      230.929     183.987     255.250
  H      232.452     180.999     254.082
  H      233.641     181.533     256.620
  H      231.558     182.169     257.598
  H      230.316     179.838     256.025
  H      228.290     181.182     256.063
  H      228.825     180.918     257.746
  P      231.765     180.722     259.765
  C      234.370     180.354     259.767
  O      233.275     181.240     259.932
  O      231.729     179.350     260.581
  O      230.717     181.711     260.151
  H      232.172     178.618     260.115
  H      235.286     180.887     259.918
  H      234.353     179.947     258.778
  H      234.297     179.560     260.481

 6  7  8  9  10  11  12  13  14  15  16  27  31  32  33  34  35 0
 6-311+G(2d,p)
 ****
 36  37 0
 6-311+G(2d,p)
 ****
 1  2  3  4  5  17  18  19  20  21  22  23  24  25 0
 3-21G
 ****
 26  28  29  30  38  39  40  41  42  43  44  45 0
 3-21G
 ****


