%nproc=1
%NoSave
%Mem=1900MB
#P OB98/GEN NMR

erre ene a

0 1
  C      -51.492     -40.499      91.083
  O      -51.598     -39.090      91.134
  H      -50.607     -40.804      91.651
  H      -51.382     -40.845      90.053
  H      -52.373     -40.960      91.538
  P      -52.723     -38.366      90.248
  C      -51.227     -37.605      88.291
  O      -52.250     -38.497      88.718
  C      -51.242     -37.453      86.769
  O      -50.682     -38.658      86.179
  C      -52.646     -37.245      86.182
  O      -52.548     -36.323      85.093
  C      -53.004     -38.630      85.683
  O      -53.985     -38.578      84.665
  C      -51.644     -39.185      85.245
  N      -51.648     -40.648      85.229
  C      -50.428     -41.272      84.945
  O      -49.416     -40.597      84.742
  N      -50.389     -42.640      84.838
  C      -51.485     -43.328      84.943
  N      -51.384     -44.676      84.784
  C      -52.802     -42.707      85.213
  C      -52.810     -41.380      85.348
  O      -53.106     -36.985      90.668
  O      -53.969     -39.371      90.328
  H      -53.792     -37.825      84.064
  H      -54.544     -39.133      91.080
  H      -53.686     -43.322      85.287
  H      -53.733     -40.837      85.535
  H      -51.378     -38.823      84.243
  H      -53.409     -39.227      86.510
  H      -53.367     -36.875      86.921
  H      -50.577     -36.624      86.495
  H      -50.465     -45.051      84.576
  H      -50.261     -38.021      88.612
  H      -52.174     -45.307      84.805
  H      -51.365     -36.628      88.767
  P      -53.434     -34.985      85.073
  C      -55.355     -36.206      83.895
  O      -54.992     -35.382      85.001
  O      -53.008     -33.967      84.056
  O      -53.270     -34.395      86.557
  H      -53.342     -33.420      86.525
  H      -56.404     -36.414      83.934
  H      -54.807     -37.124      83.939
  H      -55.126     -35.698      82.982

 6  7  8  9  10  11  12  13  14  15  16  26  30  31  32  33  35 0
 6-311+G(2d,p)
 ****
 37  38 0
 6-311+G(2d,p)
 ****
 1  2  3  4  5  17  18  19  20  21  22  23  24  25 0
 3-21G
 ****
 27  28  29  34  36  39  40  41  42  43  44  45  46 0
 3-21G
 ****


