%nproc=1
%NoSave
%Mem=1900MB
#P OB98/GEN NMR

erre ene a

0 1
  C        8.441      41.496       8.540
  O        7.351      40.785       7.980
  P        5.955      40.779       8.769
  C        4.361      42.713       9.556
  O        5.664      42.299       9.190
  C        4.431      43.893      10.530
  O        4.857      43.405      11.832
  C        5.408      45.002      10.115
  O        4.837      46.248      10.533
  C        6.647      44.682      10.932
  O        7.497      45.805      11.100
  C        6.010      44.171      12.228
  N        6.914      43.356      13.039
  C        7.287      43.844      14.287
  O        6.919      44.926      14.738
  N        8.138      43.044      15.007
  C        8.691      41.871      14.585
  O        9.462      41.206      15.265
  C        8.299      41.430      13.239
  C        7.436      42.174      12.546
  O        6.376      40.069      10.138
  O        4.849      40.112       8.026
  H        7.275      40.302      10.426
  H        7.954      45.967      10.255
  H        8.392      43.361      15.931
  H        8.728      40.510      12.863
  H        7.133      41.871      11.551
  H        5.644      45.016      12.824
  H        7.220      43.894      10.430
  H        5.589      45.019       9.037
  H        3.420      44.300      10.650
  H        3.839      41.884      10.039
  H        3.801      42.984       8.655
  P        5.152      47.559       9.655
  C        4.853      48.147       7.122
  O        4.985      47.156       8.115
  O        6.745      47.642       9.831
  O        4.454      48.800      10.105
  H        7.186      46.792       9.674
  H        5.088      47.705       6.150
  H        5.533      48.983       7.299
  H        3.822      48.512       7.102
  H        9.293      41.404       7.900
  H        8.673      41.092       9.503
  H        8.179      42.529       8.640

 3  4  5  6  7  8  9  10  11  12  13  24  28  29  30  31  32 0
 6-311+G(2d,p)
 ****
 33  34 0
 6-311+G(2d,p)
 ****
 1  2  14  15  16  17  18  19  20  21  22  23  25  26  27 0
 3-21G
 ****
 35  36  37  38  39  40  41  42  43  44  45 0
 3-21G
 ****


