%nproc=1
%NoSave
%Mem=1900MB
#P OB98/GEN NMR

erre ene a

0 1
  C     -461.358      44.849     -72.573
  O     -460.339      45.393     -73.389
  H     -462.332      45.192     -72.928
  H     -461.322      43.758     -72.644
  H     -461.217      45.140     -71.529
  P     -460.010      46.953     -73.211
  C     -457.646      46.294     -74.064
  O     -458.702      47.244     -74.105
  C     -456.822      46.357     -75.350
  O     -457.622      45.812     -76.438
  C     -456.387      47.777     -75.752
  O     -455.060      47.709     -76.288
  C     -457.352      48.133     -76.873
  O     -456.822      49.106     -77.769
  C     -457.577      46.766     -77.516
  N     -459.943      48.900     -81.483
  C     -458.648      48.888     -81.101
  N     -458.089      48.246     -80.056
  C     -459.009      47.510     -79.407
  C     -460.365      47.414     -79.676
  C     -460.835      48.171     -80.766
  N     -462.166      48.245     -81.116
  N     -460.987      46.599     -78.749
  C     -460.026      46.230     -77.923
  N     -458.815      46.757     -78.278
  O     -459.459      47.017     -71.708
  O     -461.157      47.885     -73.425
  H     -456.877      49.986     -77.348
  H     -460.203      47.138     -71.091
  H     -457.970      49.481     -81.718
  H     -460.162      45.614     -77.041
  H     -456.767      46.480     -78.199
  H     -458.281      48.527     -76.445
  H     -456.420      48.502     -74.930
  H     -455.947      45.705     -75.235
  H     -458.074      45.289     -73.966
  H     -462.424      48.897     -81.839
  H     -462.851      47.797     -80.529
  H     -457.011      46.497     -73.196
  P     -453.937      48.622     -75.591
  C     -452.089      46.834     -76.022
  O     -452.504      48.189     -76.162
  O     -453.914      48.080     -74.082
  O     -454.225      50.087     -75.649
  H     -453.700      48.808     -73.469
  H     -451.117      46.712     -76.452
  H     -452.784      46.194     -76.525
  H     -452.054      46.577     -74.984

 6  7  8  9  10  11  12  13  14  15  25  28  32  33  34  35 0
 6-311+G(2d,p)
 ****
 36  39  40 0
 6-311+G(2d,p)
 ****
 1  2  3  4  5  16  17  18  19  20  21  22  23  24 0
 3-21G
 ****
 26  27  29  30  31  37  38  41  42  43  44  45  46  47 0
 3-21G
 ****
 48 0
 3-21G
 ****


