%nproc=1
%NoSave
%Mem=1900MB
#P OB98/GEN NMR

erre ene a

0 1
  C     -255.786     -50.536    -104.316
  O     -254.766     -50.978    -103.430
  P     -254.455     -50.065    -102.146
  C     -253.859     -47.549    -101.893
  O     -253.810     -48.711    -102.718
  C     -252.677     -46.636    -102.184
  O     -251.446     -47.286    -101.805
  C     -252.504     -46.281    -103.655
  O     -253.374     -45.226    -104.048
  C     -251.049     -45.825    -103.678
  O     -250.956     -44.461    -103.230
  C     -250.398     -46.770    -102.653
  N     -245.859     -48.869    -103.528
  C     -246.187     -47.712    -102.849
  N     -245.156     -47.027    -102.299
  N     -247.405     -47.260    -102.719
  C     -248.339     -48.066    -103.285
  C     -248.143     -49.238    -103.987
  C     -246.779     -49.700    -104.167
  O     -246.429     -50.682    -104.817
  N     -249.335     -49.777    -104.397
  C     -250.254     -48.962    -103.913
  N     -249.694     -47.895    -103.256
  O     -253.205     -50.811    -101.466
  O     -255.591     -49.905    -101.189
  H     -251.502     -43.921    -103.833
  H     -253.181     -50.609    -100.511
  H     -244.913     -49.178    -103.582
  H     -251.321     -49.108    -104.010
  H     -249.696     -46.230    -102.004
  H     -250.599     -45.867    -104.676
  H     -244.214     -47.390    -102.257
  H     -252.622     -47.157    -104.295
  H     -245.378     -46.192    -101.766
  H     -252.785     -45.731    -101.576
  H     -253.825     -47.852    -100.844
  H     -254.805     -47.028    -102.075
  P     -254.010     -45.331    -105.520
  C     -252.917     -45.412    -107.883
  O     -252.818     -45.001    -106.524
  O     -254.960     -44.039    -105.598
  O     -254.756     -46.598    -105.773
  H     -255.688     -44.198    -106.238
  H     -253.950     -45.335    -108.241
  H     -252.580     -46.448    -107.969
  H     -252.286     -44.772    -108.494
  H     -255.886     -51.234    -105.121
  H     -255.526     -49.575    -104.708
  H     -256.713     -50.467    -103.786

 3  4  5  6  7  8  9  10  11  12  23  26  30  31  33  0
 6-311+G(2d,p)
 ****
 35  36  37  38 0
 6-311+G(2d,p)
 ****
 1  2  13  14  15  16  17  18  19  20  21  22  24  25  27  28  29 0
 3-21G
 ****
 32  34  39  40  41  42  43  44  45  46  47  48  49 0
 3-21G
 ****


