%nproc=1
%NoSave
%Mem=1900MB
#P OB98/GEN NMR

erre ene a

0 1
  C      294.554     164.085    -316.371
  O      295.941     164.368    -316.402
  P      296.986     163.372    -317.113
  C      297.836     162.120    -315.014
  O      298.116     163.088    -316.012
  C      298.746     162.327    -313.801
  O      300.074     161.848    -314.129
  C      298.878     163.789    -313.352
  O      298.997     163.787    -311.926
  C      300.179     164.223    -314.000
  O      300.762     165.346    -313.354
  C      300.998     162.932    -313.898
  N      302.104     162.893    -314.848
  C      303.181     163.755    -314.626
  O      303.181     164.535    -313.675
  N      304.242     163.715    -315.492
  C      304.196     162.945    -316.537
  N      305.300     162.900    -317.333
  C      303.034     162.104    -316.869
  C      302.045     162.112    -315.978
  O      297.501     163.842    -318.429
  O      296.218     161.973    -317.168
  H      301.637     165.513    -313.755
  H      295.631     161.886    -317.961
  H      303.031     161.500    -317.767
  H      301.162     161.503    -316.124
  H      301.379     162.806    -312.878
  H      299.995     164.495    -315.045
  H      298.017     164.399    -313.643
  H      298.369     161.708    -312.977
  H      306.135     163.354    -316.983
  H      298.029     161.128    -315.433
  H      305.464     162.113    -317.952
  H      296.782     162.176    -314.731
  P      297.681     164.080    -311.051
  C      298.762     165.968    -309.641
  O      298.145     164.701    -309.648
  O      297.243     162.591    -310.629
  O      296.555     164.759    -311.755
  H      296.283     162.583    -310.453
  H      299.001     166.235    -308.607
  H      298.088     166.727    -310.045
  H      299.690     165.948    -310.220
  H      294.041     164.869    -315.854
  H      294.391     163.157    -315.864
  H      294.182     164.015    -317.372

 3  4  5  6  7  8  9  10  11  12  13  23  27  28  29  30  32 0
 6-311+G(2d,p)
 ****
 34  35 0
 6-311+G(2d,p)
 ****
 1  2  14  15  16  17  18  19  20  21  22  24  25  26 0
 3-21G
 ****
 31  33  36  37  38  39  40  41  42  43  44  45  46 0
 3-21G
 ****


