%nproc=1
%NoSave
%Mem=1900MB
#P OB98/GEN NMR

erre ene a

0 1
  C     -171.610      28.878    -356.550
  O     -170.858      29.033    -357.739
  P     -171.561      28.864    -359.168
  C     -170.251      30.868    -360.104
  O     -171.536      30.285    -359.912
  C     -170.271      32.343    -359.719
  O     -170.339      32.501    -358.283
  C     -169.029      33.115    -360.142
  O     -168.995      33.347    -361.536
  C     -169.152      34.364    -359.278
  O     -170.072      35.298    -359.866
  C     -169.738      33.784    -357.973
  N     -168.740      33.663    -356.921
  C     -168.047      34.834    -356.593
  O     -168.236      35.871    -357.234
  N     -167.155      34.799    -355.552
  C     -166.881      33.667    -354.977
  N     -166.035      33.704    -353.915
  C     -167.471      32.381    -355.402
  C     -168.403      32.457    -356.356
  O     -172.894      28.192    -359.145
  O     -170.507      28.006    -360.018
  H     -170.975      27.253    -360.429
  H     -170.960      34.890    -359.805
  H     -167.161      31.458    -354.938
  H     -168.904      31.567    -356.717
  H     -170.555      34.416    -357.612
  H     -168.197      34.884    -359.158
  H     -168.133      32.555    -359.842
  H     -171.172      32.799    -360.156
  H     -165.662      34.604    -353.640
  H     -169.972      30.763    -361.154
  H     -166.008      32.968    -353.213
  H     -169.513      30.325    -359.497
  P     -167.606      33.065    -362.287
  C     -168.688      31.241    -363.773
  O     -167.666      31.570    -362.855
  O     -166.550      32.976    -361.085
  O     -167.212      34.111    -363.283
  H     -165.699      33.365    -361.368
  H     -168.397      30.340    -364.318
  H     -168.858      32.047    -364.491
  H     -169.616      31.037    -363.227
  H     -170.973      29.027    -355.703
  H     -172.024      27.892    -356.516
  H     -172.401      29.598    -356.532

 3  4  5  6  7  8  9  10  11  12  13  24  27  28  29  30  32 0
 6-311+G(2d,p)
 ****
 34  35 0
 6-311+G(2d,p)
 ****
 1  2  14  15  16  17  18  19  20  21  22  23  25  26 0
 3-21G
 ****
 31  33  36  37  38  39  40  41  42  43  44  45  46 0
 3-21G
 ****


