%nproc=1
%NoSave
%Mem=1900MB
#P OB98/GEN NMR

erre ene a

0 1
  C      130.535     291.989    -194.350
  O      131.121     292.349    -193.098
  P      130.518     291.747    -191.743
  C      130.240     294.050    -190.595
  O      130.827     292.753    -190.532
  C      130.858     294.957    -189.526
  O      130.811     294.343    -188.215
  C      132.337     295.234    -189.769
  O      132.659     296.052    -190.875
  C      132.806     295.698    -188.402
  O      132.531     297.080    -188.191
  C      131.945     294.822    -187.463
  N      132.701     293.713    -186.873
  C      133.409     294.009    -185.714
  O      133.459     295.131    -185.216
  N      134.102     292.964    -185.162
  C      134.178     291.699    -185.662
  O      134.834     290.806    -185.136
  C      133.425     291.454    -186.900
  C      132.732     292.456    -187.443
  O      130.830     290.317    -191.474
  O      128.933     291.939    -191.950
  H      131.629     297.254    -188.520
  H      128.491     291.138    -191.609
  H      134.619     293.156    -184.315
  H      133.468     290.461    -187.330
  H      132.169     292.300    -188.357
  H      131.541     295.425    -186.638
  H      133.889     295.568    -188.281
  H      132.831     294.271    -189.962
  H      130.281     295.883    -189.477
  H      129.161     293.974    -190.446
  H      130.388     294.459    -191.600
  P      133.494     295.530    -192.140
  C      135.068     297.393    -193.023
  O      133.799     296.781    -193.098
  O      133.039     294.266    -192.792
  O      134.937     295.269    -191.477
  H      135.354     294.512    -191.936
  H      135.095     298.231    -193.726
  H      135.850     296.681    -193.299
  H      135.253     297.774    -192.016
  H      131.060     292.479    -195.143
  H      129.508     292.289    -194.363
  H      130.598     290.929    -194.482

 3  4  5  6  7  8  9  10  11  12  13  23  28  29  30  31  32 0
 6-311+G(2d,p)
 ****
 33  34 0
 6-311+G(2d,p)
 ****
 1  2  14  15  16  17  18  19  20  21  22  24  25  26  27 0
 3-21G
 ****
 35  36  37  38  39  40  41  42  43  44  45 0
 3-21G
 ****


