%nproc=1
%NoSave
%Mem=1900MB
#P OB98/GEN NMR

erre ene a

0 1
  C     -893.150     126.947     -78.553
  O     -893.650     125.633     -78.652
  H     -892.820     127.126     -77.527
  H     -893.930     127.666     -78.806
  H     -892.290     127.092     -79.216
  P     -893.920     125.010     -80.103
  C     -896.430     124.551     -79.690
  O     -895.150     123.984     -79.933
  C     -897.300     123.588     -78.884
  O     -897.500     122.365     -79.645
  C     -896.700     123.194     -77.526
  O     -897.800     122.962     -76.620
  C     -896.010     121.892     -77.860
  O     -895.720     121.141     -76.701
  C     -897.020     121.276     -78.833
  N     -896.430     120.205     -79.638
  C     -896.910     118.917     -79.405
  O     -897.750     118.656     -78.543
  N     -896.350     117.927     -80.154
  C     -895.340     118.081     -81.063
  O     -894.850     117.143     -81.687
  C     -894.850     119.455     -81.237
  C     -895.410     120.440     -80.536
  O     -892.730     124.443     -80.795
  O     -894.590     126.209     -80.932
  H     -896.530     120.980     -76.183
  H     -894.360     126.124     -81.878
  H     -896.690     116.988     -80.004
  H     -894.040     119.610     -81.943
  H     -895.070     121.463     -80.650
  H     -897.870     120.861     -78.290
  H     -895.060     122.083     -78.367
  H     -896.030     123.956     -77.118
  H     -898.300     124.044     -78.759
  H     -896.900     124.748     -80.667
  H     -896.310     125.494     -79.156
  P     -898.510     124.151     -75.814
  C     -896.440     124.643     -74.360
  O     -897.810     124.277     -74.368
  O     -900.000     124.050     -75.774
  O     -898.050     125.485     -76.565
  H     -898.730     126.179     -76.460
  H     -896.090     124.694     -73.350
  H     -896.323     125.599     -74.826
  H     -895.872     123.912     -74.898

 6  7  8  9  10  11  12  13  14  15  16  26  31  32  33  34  35 0
 6-311+G(2d,p)
 ****
 36  37 0
 6-311+G(2d,p)
 ****
 1  2  3  4  5  17  18  19  20  21  22  23  24  25 0
 3-21G
 ****
 27  28  29  30  38  39  40  41  42  43  44  45 0
 3-21G
 ****


