%nproc=1
%NoSave
%Mem=1900MB
#P OB98/GEN NMR

erre ene a

0 1
  C     -180.986     271.434     -56.272
  O     -180.957     270.424     -55.259
  P     -182.290     269.556     -55.044
  C     -181.383     267.580     -56.507
  O     -181.846     268.029     -55.242
  C     -181.905     266.171     -56.786
  O     -181.666     265.803     -58.166
  C     -181.237     265.086     -55.955
  O     -181.699     265.103     -54.614
  C     -181.619     263.842     -56.750
  O     -182.959     263.437     -56.430
  C     -181.557     264.360     -58.203
  N     -180.359     263.933     -58.912
  C     -180.566     263.374     -60.169
  O     -181.683     263.217     -60.659
  N     -179.441     262.978     -60.839
  C     -178.160     263.061     -60.373
  O     -177.190     262.700     -61.024
  C     -178.009     263.614     -59.019
  C     -179.097     264.020     -58.359
  O     -183.104     269.909     -56.374
  O     -182.992     269.871     -53.767
  H     -182.531     270.032     -57.150
  H     -183.553     264.065     -56.887
  H     -179.568     262.582     -61.758
  H     -177.010     263.670     -58.606
  H     -179.005     264.429     -57.357
  H     -182.430     264.005     -58.767
  H     -180.961     262.995     -56.540
  H     -180.149     265.220     -55.975
  H     -182.989     266.171     -56.610
  H     -180.288     267.567     -56.520
  H     -181.715     268.284     -57.275
  P     -180.596     264.880     -53.466
  C     -180.132     267.395     -52.923
  O     -180.674     266.162     -52.508
  O     -179.241     265.094     -54.292
  O     -180.700     263.556     -52.784
  H     -179.278     265.860     -54.888
  H     -180.576     268.194     -52.324
  H     -180.341     267.590     -53.979
  H     -179.051     267.392     -52.760
  H     -180.039     271.931     -56.307
  H     -181.754     272.144     -56.046
  H     -181.187     270.982     -57.221

 3  4  5  6  7  8  9  10  11  12  13  24  28  29  30  31  32 0
 6-311+G(2d,p)
 ****
 33  34 0
 6-311+G(2d,p)
 ****
 1  2  14  15  16  17  18  19  20  21  22  23  25  26  27 0
 3-21G
 ****
 35  36  37  38  39  40  41  42  43  44  45 0
 3-21G
 ****


