%nproc=1
%NoSave
%Mem=1900MB
#P OB98/GEN NMR

erre ene a

0 1
  C     -198.292      26.285      34.495
  O     -197.757      27.623      34.492
  P     -196.706      28.043      35.637
  C     -198.370      28.893      37.460
  O     -197.387      27.939      37.084
  C     -198.285      29.220      38.966
  O     -199.218      30.300      39.291
  C     -198.617      28.042      39.889
  O     -197.810      28.195      41.071
  C     -200.084      28.281      40.220
  O     -200.515      27.606      41.388
  C     -200.082      29.814      40.341
  N     -201.413      30.422      40.243
  C     -202.341      30.121      41.239
  O     -202.141      29.335      42.162
  N     -203.554      30.751      41.128
  C     -203.940      31.597      40.124
  O     -205.056      32.103      40.067
  C     -202.931      31.851      39.089
  C     -201.736      31.261      39.188
  O     -196.602      29.627      35.418
  O     -195.354      27.415      35.525
  H     -200.198      28.114      42.161
  H     -195.663      29.900      35.440
  H     -204.232      30.564      41.852
  H     -203.194      32.517      38.277
  H     -200.970      31.448      38.444
  H     -199.624      30.106      41.298
  H     -200.705      27.937      39.384
  H     -198.434      27.065      39.423
  H     -197.279      29.603      39.172
  H     -199.366      28.495      37.235
  H     -198.223      29.807      36.869
  P     -196.999      26.920      41.610
  C     -198.659      26.000      43.411
  O     -198.069      25.848      42.134
  O     -196.380      27.524      42.963
  O     -195.949      26.407      40.666
  H     -197.036      28.020      43.482
  H     -198.911      27.049      43.613
  H     -197.973      25.637      44.179
  H     -199.582      25.411      43.447
  H     -198.970      26.170      33.675
  H     -198.811      26.111      35.414
  H     -197.492      25.581      34.398

 3  4  5  6  7  8  9  10  11  12  13  23  28  29  30  31  32 0
 6-311+G(2d,p)
 ****
 33  34 0
 6-311+G(2d,p)
 ****
 1  2  14  15  16  17  18  19  20  21  22  24  25  26 0
 3-21G
 ****
 27  35  36  37  38  39  40  41  42  43  44  45 0
 3-21G
 ****


