%nproc=1
%NoSave
%Mem=1900MB
#P OB98/GEN NMR

erre ene a

0 1
  C     -216.998     -82.210      66.163
  O     -217.588     -81.045      66.726
  P     -216.671     -79.824      67.217
  C     -218.696     -78.448      66.427
  O     -217.646     -78.558      67.383
  C     -219.062     -76.981      66.193
  O     -219.789     -76.490      67.347
  C     -217.848     -76.079      65.992
  O     -218.176     -75.067      65.036
  C     -217.653     -75.409      67.342
  O     -216.987     -74.141      67.204
  C     -219.097     -75.329      67.853
  N     -220.504     -72.698      72.035
  C     -220.595     -72.409      70.720
  N     -220.180     -73.144      69.665
  C     -219.663     -74.313      70.075
  C     -219.510     -74.752      71.382
  C     -219.952     -73.885      72.397
  N     -219.871     -74.186      73.739
  N     -218.911     -75.997      71.414
  C     -218.731     -76.313      70.148
  N     -219.178     -75.334      69.304
  O     -215.458     -79.569      66.387
  O     -216.293     -80.187      68.728
  H     -216.840     -73.794      68.108
  H     -215.372     -79.924      68.921
  H     -221.066     -71.455      70.482
  H     -218.274     -77.227      69.794
  H     -219.612     -74.436      67.478
  H     -217.036     -76.047      67.986
  H     -216.957     -76.628      65.669
  H     -219.739     -76.923      65.327
  H     -219.571     -78.980      66.814
  H     -220.325     -73.558      74.387
  H     -219.622     -75.132      73.998
  H     -218.390     -78.929      65.489
  P     -217.480     -75.215      63.588
  C     -219.839     -75.262      62.490
  O     -218.568     -74.653      62.555
  O     -216.962     -76.599      63.352
  O     -216.351     -74.079      63.670
  H     -216.596     -73.371      64.313
  H     -220.422     -74.767      61.703
  H     -220.366     -75.139      63.439
  H     -219.745     -76.325      62.247
  H     -217.766     -82.907      65.899
  H     -216.341     -82.658      66.879
  H     -216.443     -81.942      65.288

 3  4  5  6  7  8  9  10  11  12  22  25  29  30  31  32 0
 6-311+G(2d,p)
 ****
 33  36  37 0
 6-311+G(2d,p)
 ****
 1  2  13  14  15  16  17  18  19  20  21  23  24  26 0
 3-21G
 ****
 27  28  34  35  38  39  40  41  42  43  44  45  46  47  48 0
 3-21G
 ****


