%nproc=1
%NoSave
%Mem=1900MB
#P OB98/GEN NMR

erre ene a

0 1
  C     -174.606     739.623    -389.122
  O     -174.334     740.307    -390.352
  P     -172.832     740.268    -390.903
  C     -173.064     740.931    -393.402
  O     -172.687     741.340    -392.091
  C     -174.587     740.966    -393.588
  O     -175.135     742.235    -393.120
  C     -175.032     740.801    -395.041
  O     -176.311     740.162    -395.051
  C     -175.209     742.241    -395.497
  O     -176.014     742.326    -396.669
  C     -175.806     742.855    -394.231
  N     -177.841     747.259    -395.622
  C     -178.259     745.967    -395.868
  N     -179.411     745.827    -396.555
  N     -177.607     744.906    -395.468
  C     -176.489     745.197    -394.761
  C     -175.965     746.434    -394.460
  C     -176.682     747.600    -394.930
  O     -176.349     748.767    -394.755
  N     -174.796     746.321    -393.750
  C     -174.618     745.016    -393.624
  N     -175.631     744.298    -394.191
  O     -172.768     738.856    -391.662
  O     -171.789     740.356    -389.836
  H     -176.823     741.794    -396.506
  H     -172.225     738.236    -391.151
  H     -178.374     748.042    -395.956
  H     -173.777     744.547    -393.134
  H     -176.879     742.662    -394.143
  H     -174.231     742.679    -395.726
  H     -179.986     746.602    -396.844
  H     -174.343     740.240    -395.675
  H     -179.764     744.889    -396.709
  H     -175.034     740.176    -392.973
  H     -172.701     739.919    -393.602
  H     -172.560     741.580    -394.129
  P     -176.374     738.672    -395.631
  C     -178.295     737.884    -394.079
  O     -177.872     738.153    -395.392
  O     -175.511     737.818    -394.585
  O     -175.857     738.518    -397.029
  H     -175.148     737.022    -395.016
  H     -178.933     738.705    -393.730
  H     -177.450     737.778    -393.384
  H     -178.872     736.964    -394.071
  H     -175.641     739.731    -388.875
  H     -174.007     740.043    -388.341
  H     -174.372     738.585    -389.232

 3  4  5  6  7  8  9  10  11  12  23  26  30  31 0
 6-311+G(2d,p)
 ****
 33  35  36  37  38 0
 6-311+G(2d,p)
 ****
 1  2  13  14  15  16  17  18  19  20  21  22  24  25 0
 3-21G
 ****
 27  28  29  32  34  39  40  41  42  43  44  45  46  47  48  49 0
 3-21G
 ****


