%nproc=1
%NoSave
%Mem=1900MB
#P OB98/GEN NMR

erre ene a

0 1
  C     -201.967     505.191    -432.798
  O     -203.347     505.042    -432.559
  P     -203.942     505.186    -431.087
  C     -206.083     505.376    -432.500
  O     -205.539     505.044    -431.230
  C     -207.185     504.379    -432.885
  O     -208.277     504.423    -431.920
  C     -207.845     504.665    -434.218
  O     -207.044     504.525    -435.383
  C     -209.090     503.796    -434.123
  O     -208.802     502.437    -434.447
  C     -209.452     503.942    -432.618
  N     -210.597     504.826    -432.418
  C     -211.798     504.406    -432.985
  O     -211.925     503.365    -433.622
  N     -212.861     505.247    -432.822
  C     -212.834     506.473    -432.208
  O     -213.822     507.194    -432.138
  C     -211.539     506.871    -431.638
  C     -210.489     506.049    -431.765
  O     -203.493     506.397    -430.325
  O     -203.546     503.798    -430.385
  H     -209.499     501.881    -434.036
  H     -203.907     503.011    -430.825
  H     -213.731     504.969    -433.239
  H     -211.486     507.827    -431.132
  H     -209.528     506.313    -431.358
  H     -209.693     502.959    -432.188
  H     -209.871     504.136    -434.817
  H     -208.183     505.708    -434.223
  H     -206.758     503.371    -432.844
  H     -205.284     505.324    -433.245
  H     -206.462     506.404    -432.480
  P     -207.348     505.293    -436.753
  C     -204.900     504.698    -437.360
  O     -206.227     504.876    -437.819
  O     -207.709     506.743    -436.646
  O     -208.635     504.483    -437.295
  H     -209.196     505.086    -437.816
  H     -204.268     504.473    -438.218
  H     -204.859     503.852    -436.648
  H     -204.523     505.606    -436.877
  H     -201.769     505.059    -433.841
  H     -201.427     504.457    -432.237
  H     -201.657     506.170    -432.497

 3  4  5  6  7  8  9  10  11  12  13  23  28  29  30  31  32 0
 6-311+G(2d,p)
 ****
 33  34 0
 6-311+G(2d,p)
 ****
 1  2  14  15  16  17  18  19  20  21  22  24  25  26  27 0
 3-21G
 ****
 35  36  37  38  39  40  41  42  43  44  45 0
 3-21G
 ****


