%nproc=1
%NoSave
%Mem=1900MB
#P OB98/GEN NMR

erre ene a

0 1
  C      172.519    -352.621     -38.142
  O      171.229    -353.018     -37.722
  P      170.892    -354.573     -37.519
  C      170.107    -356.495     -39.088
  O      170.628    -355.187     -38.974
  C      170.590    -357.171     -40.375
  O      172.039    -357.147     -40.380
  C      170.202    -358.643     -40.512
  O      170.330    -359.026     -41.883
  C      171.275    -359.321     -39.692
  O      171.409    -360.706     -40.019
  C      172.530    -358.448     -39.976
  N      173.391    -358.331     -38.791
  C      173.986    -359.496     -38.333
  O      173.885    -360.577     -38.918
  N      174.640    -359.406     -37.135
  C      174.704    -358.293     -36.352
  O      175.009    -358.303     -35.168
  C      174.258    -357.042     -36.998
  C      173.610    -357.120     -38.158
  O      169.441    -354.535     -36.846
  O      171.873    -355.319     -36.681
  H      170.578    -361.146     -39.713
  H      169.513    -354.610     -35.878
  H      174.946    -360.283     -36.735
  H      174.428    -356.107     -36.469
  H      173.225    -356.218     -38.635
  H      173.124    -358.866     -40.797
  H      171.009    -359.261     -38.629
  H      169.197    -358.877     -40.144
  H      170.241    -356.601     -41.241
  H      169.012    -356.451     -39.060
  H      170.414    -357.100     -38.226
  P      169.138    -359.875     -42.541
  C      168.479    -362.355     -42.478
  O      169.164    -361.312     -41.821
  O      169.094    -359.898     -44.029
  O      167.824    -359.195     -41.919
  H      167.044    -359.424     -42.459
  H      168.964    -363.308     -42.233
  H      168.486    -362.222     -43.570
  H      167.443    -362.389     -42.129
  H      172.556    -351.555     -38.222
  H      172.734    -353.058     -39.095
  H      173.244    -352.950     -37.427

 3  4  5  6  7  8  9  10  11  12  13  23  28  29  30  31  32 0
 6-311+G(2d,p)
 ****
 33  34 0
 6-311+G(2d,p)
 ****
 1  2  14  15  16  17  18  19  20  21  22  24  25  26  27 0
 3-21G
 ****
 35  36  37  38  39  40  41  42  43  44  45 0
 3-21G
 ****


