%nproc=1
%NoSave
%Mem=1900MB
#P OB98/GEN NMR

erre ene a

0 1
  C       28.007    -206.135      14.433
  O       27.120    -205.467      13.529
  P       25.778    -204.836      14.145
  C       26.661    -202.369      14.119
  O       26.237    -203.489      14.883
  C       25.862    -201.131      14.521
  O       26.031    -200.850      15.932
  C       26.283    -199.858      13.802
  O       25.825    -199.846      12.460
  C       25.662    -198.799      14.702
  O       24.264    -198.649      14.407
  C       25.841    -199.424      16.102
  N       26.932    -198.827      16.860
  C       26.555    -197.975      17.894
  O       25.382    -197.708      18.153
  N       27.579    -197.418      18.612
  C       28.911    -197.604      18.382
  O       29.785    -197.086      19.066
  C       29.247    -198.475      17.245
  C       28.259    -199.037      16.547
  O       25.473    -205.858      15.334
  O       24.689    -204.689      13.137
  H       26.279    -206.201      15.756
  H       23.865    -198.203      15.180
  H       27.327    -196.808      19.374
  H       30.295    -198.623      17.018
  H       28.487    -199.681      15.702
  H       24.919    -199.309      16.687
  H       26.129    -197.817      14.578
  H       27.376    -199.765      13.820
  H       24.799    -201.335      14.336
  H       26.508    -202.565      13.054
  H       27.733    -202.217      14.278
  P       26.877    -199.379      11.337
  C       27.800    -201.736      10.685
  O       28.029    -200.491      11.306
  O       27.565    -198.127      12.060
  O       26.248    -199.063      10.021
  H       27.783    -198.297      12.991
  H       28.765    -202.199      10.459
  H       27.240    -201.622       9.753
  H       27.247    -202.389      11.365
  H       28.854    -206.505      13.894
  H       27.495    -206.952      14.896
  H       28.335    -205.447      15.184

 3  4  5  6  7  8  9  10  11  12  13  24  28  29  30  31  32 0
 6-311+G(2d,p)
 ****
 33  34 0
 6-311+G(2d,p)
 ****
 1  2  14  15  16  17  18  19  20  21  22  23  25  26  27 0
 3-21G
 ****
 35  36  37  38  39  40  41  42  43  44  45 0
 3-21G
 ****


