%nproc=1
%NoSave
%Mem=1900MB
#P OB98/GEN NMR

erre ene a

0 1
  C     -176.876     -36.686    -298.028
  O     -177.776     -37.020    -296.988
  H     -175.882     -37.061    -297.765
  H     -176.826     -35.601    -298.152
  H     -177.193     -37.156    -298.968
  P     -179.295     -36.535    -297.176
  C     -179.849     -34.347    -295.896
  O     -179.270     -34.931    -297.055
  C     -178.882     -34.428    -294.719
  O     -177.574     -33.938    -295.094
  C     -179.310     -33.629    -293.494
  O     -180.245     -34.348    -292.706
  C     -177.979     -33.426    -292.788
  O     -177.602     -34.593    -292.024
  C     -177.018     -33.212    -293.965
  N     -173.643     -29.450    -294.169
  C     -173.487     -30.777    -293.806
  N     -172.249     -31.137    -293.385
  N     -174.444     -31.662    -293.847
  C     -175.631     -31.148    -294.255
  C     -175.911     -29.861    -294.655
  C     -174.829     -28.899    -294.636
  O     -174.893     -27.727    -295.011
  N     -177.230     -29.733    -295.016
  C     -177.751     -30.922    -294.800
  N     -176.824     -31.815    -294.320
  O     -180.005     -36.995    -295.814
  O     -179.999     -37.081    -298.374
  H     -176.740     -34.438    -291.606
  H     -180.941     -37.200    -295.995
  H     -172.863     -28.822    -294.136
  H     -178.784     -31.192    -294.976
  H     -176.022     -33.629    -293.768
  H     -178.012     -32.590    -292.081
  H     -171.589     -30.458    -293.026
  H     -179.714     -32.649    -293.790
  H     -172.132     -32.102    -293.096
  H     -178.767     -35.490    -294.457
  H     -180.768     -34.886    -295.645
  H     -180.097     -33.299    -296.108
  P     -181.242     -33.506    -291.772
  C     -180.599     -33.657    -289.253
  O     -180.377     -33.024    -290.505
  O     -182.200     -34.633    -291.153
  O     -182.009     -32.441    -292.480
  H     -183.007     -34.217    -290.785
  H     -179.952     -33.228    -288.517
  H     -180.395     -34.704    -289.341
  H     -181.618     -33.516    -288.958

 6  7  8  9  10  11  12  13  14  15  26  29  33  34 0
 6-311+G(2d,p)
 ****
 36  38  39  40  41 0
 6-311+G(2d,p)
 ****
 1  2  3  4  5  16  17  18  19  20  21  22  23  24  25 0
 3-21G
 ****
 27  28  30  31  32  35  37  42  43  44  45  46  47 0
 3-21G
 ****
 48  49 0
 3-21G
 ****


