%nproc=1
%NoSave
%Mem=1900MB
#P OB98/GEN NMR

erre ene a

0 1
  C     -360.542    -377.044     195.282
  O     -361.784    -377.414     194.707
  P     -363.063    -376.513     195.082
  C     -364.317    -377.848     196.947
  O     -363.377    -376.817     196.623
  C     -365.290    -377.358     198.018
  O     -364.566    -376.985     199.206
  C     -366.080    -376.131     197.617
  O     -367.142    -376.477     196.737
  C     -366.550    -375.621     198.979
  O     -367.775    -376.265     199.376
  C     -365.389    -376.020     199.911
  N     -364.593    -374.872     200.357
  C     -365.102    -374.175     201.449
  O     -366.175    -374.529     201.974
  N     -364.425    -373.072     201.898
  C     -363.335    -372.703     201.307
  N     -362.682    -371.602     201.797
  C     -362.769    -373.409     200.134
  C     -363.448    -374.473     199.706
  O     -364.259    -377.252     194.305
  O     -362.948    -375.073     194.709
  H     -367.538    -377.200     199.546
  H     -364.977    -376.623     194.099
  H     -361.853    -373.054     199.675
  H     -363.103    -375.050     198.856
  H     -365.765    -376.538     200.806
  H     -366.742    -374.542     198.972
  H     -365.438    -375.376     197.148
  H     -365.962    -378.193     198.263
  H     -363.097    -371.138     202.600
  H     -363.773    -378.723     197.313
  H     -361.814    -371.262     201.423
  H     -364.855    -378.131     196.035
  P     -367.280    -375.653     195.368
  C     -369.061    -374.305     196.632
  O     -367.917    -374.245     195.799
  O     -368.511    -376.392     194.658
  O     -366.070    -375.593     194.487
  H     -368.627    -376.034     193.753
  H     -369.295    -373.295     196.970
  H     -368.860    -374.931     197.515
  H     -369.909    -374.707     196.074
  H     -359.781    -377.720     194.953
  H     -360.617    -377.083     196.349
  H     -360.291    -376.049     194.978

 3  4  5  6  7  8  9  10  11  12  13  21  23  27  28  29  30  32 0
 6-311+G(2d,p)
 ****
 34  35 0
 6-311+G(2d,p)
 ****
 1  2  14  15  16  17  18  19  20  22  24  25  26 0
 3-21G
 ****
 31  33  36  37  38  39  40  41  42  43  44  45  46 0
 3-21G
 ****


