%nproc=1
%NoSave
%Mem=1900MB
#P OB98/GEN NMR

erre ene a

0 1
  C      290.041    -413.329     165.563
  O      290.321    -412.096     164.932
  H      289.027    -413.289     165.970
  H      290.738    -413.500     166.385
  H      290.096    -414.153     164.846
  P      291.715    -411.920     164.159
  C      292.443    -411.007     161.868
  O      291.405    -411.066     162.834
  C      291.878    -411.194     160.462
  O      291.413    -412.562     160.324
  C      290.704    -410.261     160.139
  O      290.810    -409.860     158.773
  C      289.488    -411.153     160.318
  O      288.381    -410.720     159.531
  C      290.037    -412.518     159.902
  N      285.853    -415.319     159.484
  C      286.362    -414.346     158.645
  N      285.640    -414.056     157.541
  N      287.482    -413.710     158.868
  C      288.107    -414.113     160.003
  C      287.706    -415.059     160.914
  C      286.457    -415.749     160.661
  O      285.948    -416.605     161.372
  N      288.602    -415.163     161.953
  C      289.537    -414.277     161.670
  N      289.280    -413.607     160.501
  O      292.475    -413.185     163.913
  O      292.539    -410.899     165.071
  H      287.690    -411.413     159.597
  H      293.187    -411.375     165.626
  H      284.979    -415.770     159.264
  H      290.415    -414.078     162.271
  H      290.002    -412.669     158.814
  H      289.185    -411.156     161.371
  H      284.775    -414.514     157.294
  H      290.669    -409.382     160.787
  H      286.006    -413.361     156.898
  H      292.693    -411.063     159.740
  H      293.161    -411.805     162.086
  H      292.955    -410.041     161.942
  P      291.205    -408.342     158.444
  C      292.026    -407.234     156.267
  O      291.085    -408.124     156.858
  O      292.474    -407.856     159.060
  O      289.941    -407.520     158.998
  H      290.246    -406.634     159.290
  H      291.846    -407.172     155.214
  H      293.017    -407.598     156.438
  H      291.922    -406.263     156.705

 6  7  8  9  10  11  12  13  14  15  26  29  33  34 0
 6-311+G(2d,p)
 ****
 36  38  39  40  41 0
 6-311+G(2d,p)
 ****
 1  2  3  4  5  16  17  18  19  20  21  22  23  24  25 0
 3-21G
 ****
 27  28  30  31  32  35  37  42  43  44  45  46  47 0
 3-21G
 ****
 48  49 0
 3-21G
 ****


