%nproc=1
%NoSave
%Mem=1900MB
#P OB98/GEN NMR

erre ene a

0 1
  C      589.309    -304.994     -30.430
  O      589.494    -305.963     -29.422
  H      590.216    -304.394     -30.510
  H      588.476    -304.339     -30.163
  H      589.111    -305.463     -31.397
  P      588.475    -307.193     -29.336
  C      590.150    -308.994     -30.130
  O      588.955    -308.281     -30.414
  C      590.276    -310.238     -31.012
  O      589.043    -310.996     -30.963
  C      590.489    -309.835     -32.477
  O      591.232    -310.814     -33.199
  C      589.071    -309.780     -33.023
  O      589.016    -309.908     -34.440
  C      588.419    -310.934     -32.271
  N      583.804    -312.312     -33.921
  C      585.048    -312.599     -34.446
  N      585.056    -313.339     -35.588
  N      586.172    -312.194     -33.926
  C      586.005    -311.408     -32.837
  C      584.828    -311.028     -32.228
  C      583.587    -311.521     -32.798
  O      582.460    -311.278     -32.381
  N      585.058    -310.203     -31.157
  C      586.367    -310.073     -31.117
  N      586.990    -310.797     -32.109
  O      587.133    -306.622     -29.993
  O      588.223    -307.734     -27.961
  H      589.313    -310.813     -34.668
  H      586.357    -307.107     -29.661
  H      582.966    -312.666     -34.353
  H      586.915    -309.484     -30.393
  H      588.610    -311.886     -32.772
  H      588.645    -308.804     -32.769
  H      584.220    -313.520     -36.113
  H      590.997    -308.868     -32.567
  H      585.916    -313.310     -36.139
  H      591.068    -310.892     -30.634
  H      590.104    -309.287     -29.078
  H      591.015    -308.340     -30.255
  P      592.831    -310.716     -33.161
  C      593.017    -313.025     -31.938
  O      593.348    -311.652     -31.970
  O      593.104    -309.224     -32.634
  O      593.486    -310.975     -34.475
  H      593.406    -308.659     -33.373
  H      593.452    -313.477     -31.071
  H      593.395    -313.504     -32.817
  H      591.953    -313.135     -31.901

 6  7  8  9  10  11  12  13  14  15  26  29  33  34 0
 6-311+G(2d,p)
 ****
 36  38  39  40  41 0
 6-311+G(2d,p)
 ****
 1  2  3  4  5  16  17  18  19  20  21  22  23  24  25 0
 3-21G
 ****
 27  28  30  31  32  35  37  42  43  44  45  46  47 0
 3-21G
 ****
 48  49 0
 3-21G
 ****


