%nproc=1
%NoSave
%Mem=1900MB
#P OB98/GEN NMR

erre ene a

0 1
  C     -174.786    -436.082     205.468
  O     -174.625    -436.519     206.824
  P     -173.181    -436.730     207.484
  C     -173.045    -434.256     208.201
  O     -172.962    -435.616     208.623
  C     -172.462    -433.302     209.245
  O     -172.427    -431.952     208.744
  C     -173.241    -433.244     210.557
  O     -172.942    -434.367     211.364
  C     -172.781    -431.905     211.121
  O     -171.502    -432.038     211.760
  C     -172.654    -431.054     209.847
  N     -174.262    -426.327     208.735
  C     -173.027    -426.848     208.888
  N     -172.677    -428.117     209.187
  C     -173.769    -428.891     209.312
  C     -175.096    -428.497     209.186
  C     -175.330    -427.148     208.887
  N     -176.592    -426.616     208.746
  N     -175.942    -429.565     209.405
  C     -175.141    -430.586     209.640
  N     -173.820    -430.230     209.591
  O     -172.060    -436.821     206.496
  O     -173.307    -438.092     208.320
  H     -171.662    -432.325     212.680
  H     -172.436    -438.522     208.380
  H     -172.204    -426.150     208.748
  H     -175.466    -431.598     209.844
  H     -171.785    -430.384     209.892
  H     -173.474    -431.495     211.859
  H     -174.316    -433.202     210.351
  H     -171.423    -433.608     209.432
  H     -174.102    -434.012     208.030
  H     -176.680    -425.631     208.566
  H     -177.397    -427.213     208.903
  H     -172.505    -434.152     207.255
  P     -174.051    -434.970     212.347
  C     -175.206    -436.616     210.753
  O     -174.343    -436.471     211.867
  O     -175.259    -434.124     212.554
  O     -173.258    -435.197     213.726
  H     -173.880    -435.105     214.470
  H     -176.240    -436.519     211.075
  H     -175.054    -437.608     210.323
  H     -174.983    -435.864     209.988
  H     -175.828    -436.009     205.238
  H     -174.324    -436.787     204.809
  H     -174.326    -435.124     205.345

 3  4  5  6  7  8  9  10  11  12  22  25  29  30  31  32 0
 6-311+G(2d,p)
 ****
 33  36  37 0
 6-311+G(2d,p)
 ****
 1  2  13  14  15  16  17  18  19  20  21  23  24  26 0
 3-21G
 ****
 27  28  34  35  38  39  40  41  42  43  44  45  46  47  48 0
 3-21G
 ****


