%nproc=1
%NoSave
%Mem=1900MB
#P OB98/GEN NMR

erre ene a

0 1
  C      -92.005     123.660     -41.243
  O      -93.336     124.139     -41.348
  P      -93.632     125.662     -40.956
  C      -93.105     126.652     -43.304
  O      -92.759     126.595     -41.927
  C      -93.064     128.098     -43.809
  O      -91.710     128.624     -43.646
  C      -93.439     128.255     -45.288
  O      -94.108     129.520     -45.432
  C      -92.082     128.318     -45.969
  O      -92.129     128.901     -47.260
  C      -91.301     129.135     -44.933
  N      -89.853     129.047     -45.111
  C      -89.272     129.880     -46.064
  O      -89.905     130.678     -46.753
  N      -87.925     129.730     -46.250
  C      -87.132     128.787     -45.659
  O      -85.955     128.624     -45.957
  C      -87.797     127.930     -44.668
  C      -89.103     128.096     -44.437
  O      -92.920     125.820     -39.531
  O      -95.083     126.017     -40.897
  H      -91.245     128.806     -47.661
  H      -93.574     125.757     -38.814
  H      -87.486     130.335     -46.929
  H      -87.193     127.185     -44.161
  H      -89.625     127.467     -43.721
  H      -91.605     130.190     -44.968
  H      -91.677     127.306     -46.069
  H      -94.069     127.445     -45.671
  H      -93.726     128.705     -43.180
  H      -94.113     126.256     -43.439
  H      -92.419     126.024     -43.882
  P      -95.049     129.727     -46.719
  C      -96.992     128.969     -45.147
  O      -96.412     128.935     -46.431
  O      -94.290     128.813     -47.796
  O      -95.182     131.159     -47.140
  H      -94.000     127.961     -47.426
  H      -96.840     129.936     -44.655
  H      -96.562     128.179     -44.531
  H      -98.073     128.792     -45.240
  H      -91.972     122.632     -41.538
  H      -91.672     123.751     -40.230
  H      -91.367     124.235     -41.881

 3  4  5  6  7  8  9  10  11  12  13  23  28  29  30  31  32 0
 6-311+G(2d,p)
 ****
 33  34 0
 6-311+G(2d,p)
 ****
 1  2  14  15  16  17  18  19  20  21  22  24  25  26 0
 3-21G
 ****
 27  35  36  37  38  39  40  41  42  43  44  45 0
 3-21G
 ****


