%nproc=1
%NoSave
%Mem=1900MB
#P OB98/GEN NMR

erre ene a

0 1
  C     -330.880     453.727      13.756
  O     -330.250     454.607      14.680
  P     -330.885     454.712      16.151
  C     -329.013     453.147      17.026
  O     -330.412     453.392      16.923
  C     -328.488     453.597      18.378
  O     -329.252     452.978      19.429
  C     -327.035     453.222      18.658
  O     -326.131     454.126      18.040
  C     -326.985     453.343      20.172
  O     -326.802     454.720      20.544
  C     -328.384     452.858      20.587
  N     -326.469     449.516      23.879
  C     -326.204     450.863      23.728
  N     -325.318     451.403      24.596
  N     -326.753     451.614      22.808
  C     -327.643     450.948      22.035
  C     -327.992     449.618      22.087
  C     -327.340     448.788      23.078
  O     -327.486     447.577      23.216
  N     -328.947     449.319      21.151
  C     -329.205     450.468      20.562
  N     -328.418     451.481      21.045
  O     -332.446     454.448      15.892
  O     -330.653     456.008      16.851
  H     -327.604     455.201      20.268
  H     -332.974     454.866      16.597
  H     -326.032     448.989      24.613
  H     -329.945     450.608      19.785
  H     -328.810     453.496      21.374
  H     -326.160     452.779      20.615
  H     -324.968     450.904      25.402
  H     -326.838     452.188      18.361
  H     -325.139     452.396      24.522
  H     -328.625     454.685      18.456
  H     -328.492     453.701      16.238
  H     -328.831     452.075      16.879
  P     -324.662     453.559      17.716
  C     -325.611     452.278      15.660
  O     -324.909     452.206      16.888
  O     -324.145     453.049      19.137
  O     -323.743     454.552      17.094
  H     -323.167     453.064      19.167
  H     -325.377     453.192      15.114
  H     -326.687     452.235      15.857
  H     -325.332     451.421      15.044
  H     -330.357     453.756      12.823
  H     -331.894     454.034      13.606
  H     -330.863     452.730      14.144

 3  4  5  6  7  8  9  10  11  12  23  26  30  31  33  0
 6-311+G(2d,p)
 ****
 35  36  37  38 0
 6-311+G(2d,p)
 ****
 1  2  13  14  15  16  17  18  19  20  21  22  24  25  27  28  29 0
 3-21G
 ****
 32  34  39  40  41  42  43  44  45  46  47  48  49 0
 3-21G
 ****


