%nproc=1
%NoSave
%Mem=1900MB
#P OB98/GEN NMR

erre ene a

0 1
  C       28.132     372.610     561.895
  O       27.661     371.284     562.031
  H       28.433     372.770     560.856
  H       29.004     372.767     562.538
  H       27.348     373.328     562.146
  P       27.010     370.834     563.424
  C       29.249     370.930     564.703
  O       28.165     370.116     564.268
  C       29.748     370.445     566.063
  O       28.702     370.565     567.052
  C       30.175     368.983     566.075
  O       31.436     368.802     565.467
  C       30.135     368.685     567.567
  O       31.329     369.155     568.211
  C       28.905     369.503     568.019
  N       27.703     368.690     568.171
  C       27.456     368.180     569.445
  O       28.207     368.357     570.395
  N       26.320     367.419     569.572
  C       25.491     367.040     568.557
  O       24.538     366.290     568.715
  C       25.811     367.587     567.228
  C       26.886     368.373     567.102
  O       25.729     370.069     563.326
  O       26.802     372.218     564.208
  H       31.306     368.804     569.124
  H       25.857     372.460     564.193
  H       26.131     367.034     570.486
  H       25.174     367.318     566.403
  H       27.144     368.781     566.126
  H       29.108     369.993     568.978
  H       30.056     367.620     567.775
  H       29.410     368.367     565.576
  H       30.580     371.097     566.373
  H       28.896     371.965     564.792
  H       30.051     370.892     563.956
  P       31.612     367.747     564.274
  C       30.795     365.801     565.735
  O       31.853     366.309     564.938
  O       32.588     368.140     563.214
  O       30.134     367.620     563.670
  H       30.148     367.893     562.728
  H       31.069     364.842     566.122
  H       29.912     365.706     565.138
  H       30.606     366.472     566.546

 6  7  8  9  10  11  12  13  14  15  16  26  31  32  33  34  35 0
 6-311+G(2d,p)
 ****
 36  37 0
 6-311+G(2d,p)
 ****
 1  2  3  4  5  17  18  19  20  21  22  23  24  25 0
 3-21G
 ****
 27  28  29  30  38  39  40  41  42  43  44  45 0
 3-21G
 ****


