%nproc=1
%NoSave
%Mem=1900MB
#P OB98/GEN NMR

erre ene a

0 1
  C     -362.207     166.461     143.401
  O     -362.587     165.417     144.303
  P     -363.922     164.545     144.114
  C     -363.105     162.375     145.250
  O     -364.019     163.464     145.295
  C     -362.813     161.816     146.646
  O     -361.767     162.574     147.289
  C     -363.996     161.863     147.610
  O     -364.936     160.842     147.317
  C     -363.286     161.712     148.951
  O     -363.002     160.334     149.237
  C     -361.984     162.501     148.715
  N     -362.013     163.828     149.312
  C     -362.010     163.882     150.709
  O     -362.053     162.845     151.375
  N     -362.001     165.113     151.322
  C     -362.060     166.191     150.601
  N     -362.037     167.378     151.262
  C     -362.144     166.175     149.128
  C     -362.115     164.972     148.559
  O     -364.078     163.964     142.747
  O     -365.124     165.556     144.438
  H     -363.813     159.834     149.023
  H     -365.902     165.301     143.906
  H     -362.222     167.095     148.569
  H     -362.170     164.870     147.482
  H     -361.123     161.950     149.121
  H     -363.879     162.100     149.784
  H     -364.473     162.852     147.560
  H     -362.462     160.785     146.529
  H     -361.971     167.358     152.270
  H     -362.166     162.733     144.803
  H     -362.073     168.281     150.798
  H     -363.518     161.593     144.604
  P     -366.172     161.165     146.348
  C     -366.202     158.679     145.686
  O     -366.967     159.792     146.122
  O     -365.848     161.921     145.106
  O     -367.175     161.995     147.280
  H     -367.670     162.632     146.722
  H     -366.735     157.759     145.947
  H     -365.214     158.674     146.156
  H     -366.081     158.721     144.601
  H     -361.287     166.898     143.728
  H     -362.970     167.210     143.381
  H     -362.080     166.055     142.419

 3  4  5  6  7  8  9  10  11  12  13  23  27  28  29  30  32 0
 6-311+G(2d,p)
 ****
 34  35 0
 6-311+G(2d,p)
 ****
 1  2  14  15  16  17  18  19  20  21  22  24  25  26 0
 3-21G
 ****
 31  33  36  37  38  39  40  41  42  43  44  45  46 0
 3-21G
 ****


