%nproc=1
%NoSave
%Mem=1900MB
#P OB98/GEN NMR

erre ene a

0 1
  C     -227.364      34.839      47.740
  O     -228.392      35.794      47.445
  P     -229.162      35.856      46.037
  C     -228.730      36.828      43.675
  O     -228.201      36.581      44.973
  C     -227.824      37.777      42.888
  O     -227.749      39.063      43.551
  C     -226.370      37.338      42.767
  O     -226.206      36.266      41.856
  C     -225.699      38.641      42.335
  O     -225.794      38.832      40.916
  C     -226.542      39.703      43.067
  N     -225.822      40.349      44.153
  C     -225.200      41.567      43.855
  O     -225.206      42.006      42.705
  N     -224.576      42.248      44.871
  C     -224.485      41.713      46.048
  N     -223.869      42.443      47.019
  C     -225.008      40.370      46.366
  C     -225.660      39.752      45.383
  O     -230.528      36.459      46.119
  O     -229.231      34.340      45.524
  H     -230.000      34.229      44.935
  H     -225.423      38.032      40.497
  H     -224.874      39.943      47.351
  H     -226.090      38.768      45.536
  H     -226.886      40.465      42.359
  H     -224.635      38.660      42.593
  H     -225.996      37.048      43.758
  H     -228.262      37.922      41.892
  H     -223.531      43.364      46.770
  H     -229.718      37.291      43.786
  H     -223.767      42.127      47.971
  H     -228.852      35.875      43.148
  P     -225.680      34.873      42.458
  C     -223.369      33.729      42.758
  O     -224.109      34.774      42.157
  O     -226.326      33.776      41.485
  O     -226.062      34.632      43.881
  H     -226.608      33.002      42.008
  H     -222.508      33.497      42.123
  H     -223.972      32.825      42.883
  H     -223.006      34.060      43.735
  H     -227.005      34.997      48.736
  H     -226.557      34.958      47.047
  H     -227.762      33.849      47.657

 3  4  5  6  7  8  9  10  11  12  13  24  27  28  29  30  32 0
 6-311+G(2d,p)
 ****
 34  35 0
 6-311+G(2d,p)
 ****
 1  2  14  15  16  17  18  19  20  21  22  23  25  26 0
 3-21G
 ****
 31  33  36  37  38  39  40  41  42  43  44  45  46 0
 3-21G
 ****


