%nproc=1
%NoSave
%Mem=1900MB
#P OB98/GEN NMR

erre ene a

0 1
  C     -815.026     158.476    -674.595
  O     -814.575     159.517    -673.750
  H     -814.976     158.828    -675.634
  H     -816.067     158.226    -674.365
  H     -814.390     157.593    -674.494
  P     -814.375     159.206    -672.186
  C     -811.940     160.068    -672.056
  O     -813.293     160.258    -671.640
  C     -811.207     161.413    -672.148
  O     -811.624     162.084    -673.385
  C     -811.513     162.393    -670.988
  O     -810.342     163.203    -670.805
  C     -812.658     163.199    -671.574
  O     -812.967     164.339    -670.821
  C     -812.121     163.393    -673.003
  N     -813.096     163.879    -673.971
  C     -813.549     165.197    -673.834
  O     -813.176     165.970    -672.942
  N     -814.476     165.609    -674.762
  C     -814.967     164.866    -675.790
  O     -815.759     165.294    -676.611
  C     -814.453     163.484    -675.890
  C     -813.547     163.070    -674.997
  O     -814.106     157.780    -671.838
  O     -815.738     159.734    -671.521
  H     -816.318     158.973    -671.329
  H     -812.155     164.866    -670.687
  H     -814.797     166.558    -674.673
  H     -814.840     162.868    -676.684
  H     -813.157     162.062    -675.037
  H     -811.267     164.067    -672.973
  H     -813.578     162.593    -671.582
  H     -811.748     161.872    -670.052
  H     -810.130     161.223    -672.241
  H     -811.943     159.582    -673.039
  H     -811.427     159.414    -671.334
  P     -810.140     164.200    -669.557
  C     -808.051     162.845    -668.838
  O     -808.588     164.136    -669.110
  O     -811.100     163.966    -668.432
  O     -810.318     165.671    -670.162
  H     -810.614     166.278    -669.462
  H     -807.023     162.939    -668.555
  H     -808.125     162.236    -669.715
  H     -808.601     162.391    -668.040

 6  7  8  9  10  11  12  13  14  15  16  27  31  32  33  34  35 0
 6-311+G(2d,p)
 ****
 36  37 0
 6-311+G(2d,p)
 ****
 1  2  3  4  5  17  18  19  20  21  22  23  24  25 0
 3-21G
 ****
 26  28  29  30  38  39  40  41  42  43  44  45 0
 3-21G
 ****


