%nproc=1
%NoSave
%Mem=1900MB
#P OB98/GEN NMR

erre ene a

0 1
  C     -248.628    -824.727     234.757
  O     -248.311    -823.347     234.863
  H     -248.909    -824.946     233.724
  H     -249.483    -824.960     235.407
  H     -247.766    -825.338     235.031
  P     -247.864    -822.827     236.314
  C     -245.551    -822.006     235.410
  O     -246.777    -821.679     236.056
  C     -244.979    -820.791     234.689
  O     -245.800    -820.511     233.511
  C     -244.962    -819.505     235.541
  O     -243.869    -818.698     235.078
  C     -246.290    -818.862     235.130
  O     -246.337    -817.510     235.537
  C     -246.259    -819.148     233.625
  N     -249.623    -815.796     231.729
  C     -248.384    -815.638     232.253
  N     -247.549    -816.568     232.721
  C     -248.084    -817.802     232.599
  C     -249.331    -818.126     232.086
  C     -250.128    -817.058     231.638
  N     -251.385    -817.216     231.114
  N     -249.537    -819.502     232.126
  C     -248.440    -819.988     232.663
  N     -247.543    -818.996     232.974
  O     -247.003    -824.050     236.890
  O     -248.977    -822.441     237.235
  H     -245.942    -817.405     236.433
  H     -247.556    -824.618     237.438
  H     -248.032    -814.607     232.303
  H     -248.243    -821.034     232.850
  H     -245.538    -818.496     233.107
  H     -247.130    -819.369     235.613
  H     -244.863    -819.695     236.605
  H     -243.975    -821.031     234.318
  H     -245.744    -822.813     234.694
  H     -244.837    -822.365     236.158
  H     -251.898    -816.395     230.829
  H     -251.775    -818.152     231.053
  P     -243.417    -817.433     235.976
  C     -241.023    -818.328     236.541
  O     -241.819    -817.306     235.925
  O     -243.673    -817.966     237.465
  O     -244.180    -816.152     235.739
  H     -243.869    -817.206     238.070
  H     -239.986    -818.095     236.419
  H     -241.233    -819.270     236.080
  H     -241.256    -818.381     237.584

 6  7  8  9  10  11  12  13  14  15  25  28  32  33  34  35 0
 6-311+G(2d,p)
 ****
 36  37  40 0
 6-311+G(2d,p)
 ****
 1  2  3  4  5  16  17  18  19  20  21  22  23  24 0
 3-21G
 ****
 26  27  29  30  31  38  39 41  42  43  44  45  46  47  48 0
 3-21G
 ****


