%nproc=1
%NoSave
%Mem=1900MB
#P OB98/GEN NMR

erre ene a

0 1
  C      -31.074      28.414    -132.751
  O      -30.378      29.484    -133.356
  H      -30.501      27.494    -132.898
  H      -32.056      28.293    -133.215
  H      -31.188      28.592    -131.678
  P      -31.036      30.941    -133.217
  C      -30.371      30.906    -130.703
  O      -31.396      31.124    -131.664
  C      -30.751      31.568    -129.382
  O      -29.790      31.203    -128.367
  C      -30.748      33.092    -129.422
  O      -31.923      33.610    -130.020
  C      -30.623      33.426    -127.941
  O      -31.895      33.390    -127.283
  C      -29.731      32.292    -127.419
  N      -26.629      35.097    -124.507
  C      -27.945      34.807    -124.407
  N      -28.696      34.032    -125.218
  C      -27.946      33.527    -126.213
  C      -26.599      33.739    -126.446
  C      -25.926      34.566    -125.534
  N      -24.595      34.890    -125.655
  N      -26.198      33.085    -127.595
  C      -27.282      32.482    -128.041
  N      -28.359      32.717    -127.234
  O      -32.464      30.757    -133.919
  O      -30.251      32.055    -133.825
  H      -32.176      32.455    -127.270
  H      -32.408      31.039    -134.851
  H      -28.463      35.261    -123.567
  H      -27.337      31.878    -128.938
  H      -30.081      31.901    -126.456
  H      -30.209      34.424    -127.793
  H      -29.854      33.456    -129.944
  H      -31.733      31.189    -129.073
  H      -29.434      31.343    -131.068
  H      -30.233      29.828    -130.570
  H      -24.183      35.509    -124.976
  H      -24.089      34.586    -126.475
  P      -32.178      35.189    -129.962
  C      -30.498      35.847    -131.834
  O      -30.837      35.918    -130.459
  O      -32.218      35.496    -128.393
  O      -33.419      35.646    -130.652
  H      -33.140      35.578    -128.084
  H      -29.585      36.378    -132.004
  H      -31.280      36.287    -132.417
  H      -30.374      34.823    -132.118

 6  7  8  9  10  11  12  13  14  15  25  28  32  33  34  35 0
 6-311+G(2d,p)
 ****
 36  37  40 0
 6-311+G(2d,p)
 ****
 1  2  3  4  5  16  17  18  19  20  21  22  23  24 0
 3-21G
 ****
 26  27  29  30  31  38  39 41  42  43  44  45  46  47  48 0
 3-21G
 ****


