%nproc=1
%NoSave
%Mem=1900MB
#P OB98/GEN NMR

erre ene a

0 1
  C     -132.951     108.345     282.449
  O     -131.960     108.596     281.467
  H     -132.633     108.803     283.391
  H     -133.073     107.272     282.614
  H     -133.903     108.786     282.145
  P     -132.118     107.891     280.037
  C     -130.599     105.963     280.860
  O     -131.854     106.333     280.292
  C     -130.656     104.524     281.367
  O     -131.673     104.390     282.378
  C     -131.017     103.519     280.279
  O     -129.912     103.271     279.431
  C     -131.475     102.341     281.121
  O     -130.361     101.593     281.621
  C     -132.227     103.056     282.268
  N     -133.669     103.104     282.058
  C     -134.378     101.947     282.407
  O     -133.792     100.972     282.872
  N     -135.738     101.930     282.202
  C     -136.336     102.969     281.710
  N     -137.681     102.884     281.532
  C     -135.626     104.210     281.340
  C     -134.308     104.205     281.535
  O     -131.325     108.474     278.905
  O     -133.695     107.952     279.758
  H     -130.745     100.856     282.134
  H     -133.929     108.776     279.294
  H     -136.168     105.056     280.936
  H     -133.710     105.079     281.289
  H     -132.034     102.555     283.224
  H     -132.100     101.659     280.546
  H     -131.877     103.880     279.702
  H     -129.690     104.278     281.825
  H     -138.121     102.009     281.789
  H     -130.403     106.650     281.689
  H     -138.260     103.655     281.238
  H     -129.793     106.071     280.122
  P     -130.125     103.038     277.860
  C     -129.686     100.509     278.154
  O     -130.606     101.511     277.717
  O     -128.976     103.431     276.992
  O     -131.467     103.866     277.548
  H     -131.299     104.836     277.546
  H     -130.118      99.541     278.009
  H     -129.470     100.651     279.192
  H     -128.781     100.584     277.588

 6  7  8  9  10  11  12  13  14  15  16  26  30  31  32  33  35 0
 6-311+G(2d,p)
 ****
 37  38 0
 6-311+G(2d,p)
 ****
 1  2  3  4  5  17  18  19  20  21  22  23  24  25 0
 3-21G
 ****
 27  28  29  34  36  39  40  41  42  43  44  45  46 0
 3-21G
 ****


