%nproc=1
%NoSave
%Mem=1900MB
#P OB98/GEN NMR

erre ene a

0 1
  C     -205.536      28.769     -79.935
  O     -204.857      28.259     -81.096
  P     -205.347      26.871     -81.743
  C     -206.443      28.062     -83.798
  O     -206.594      27.167     -82.708
  C     -207.801      28.323     -84.458
  O     -208.639      29.124     -83.594
  C     -207.726      29.096     -85.766
  O     -207.301      28.276     -86.842
  C     -209.161      29.588     -85.909
  O     -210.000      28.569     -86.478
  C     -209.551      29.858     -84.442
  N     -209.557      31.280     -84.113
  C     -210.396      32.086     -84.873
  O     -211.064      31.666     -85.815
  N     -210.418      33.412     -84.535
  C     -209.646      34.010     -83.577
  O     -209.697      35.208     -83.333
  C     -208.719      33.120     -82.863
  C     -208.712      31.820     -83.164
  O     -206.055      26.154     -80.495
  O     -204.270      26.005     -82.309
  H     -209.674      28.413     -87.386
  H     -206.003      25.186     -80.603
  H     -211.042      34.010     -85.053
  H     -208.073      33.557     -82.114
  H     -208.034      31.150     -82.643
  H     -210.547      29.448     -84.235
  H     -209.239      30.467     -86.557
  H     -207.061      29.960     -85.651
  H     -208.297      27.355     -84.610
  H     -205.766      27.623     -84.535
  H     -206.007      28.998     -83.434
  P     -205.716      28.079     -87.017
  C     -205.729      25.500     -86.594
  O     -205.354      26.784     -86.147
  O     -205.161      29.319     -86.170
  O     -205.284      28.057     -88.445
  H     -205.729      29.527     -85.409
  H     -205.709      25.432     -87.685
  H     -206.737      25.272     -86.234
  H     -205.032      24.766     -86.182
  H     -205.087      29.693     -79.636
  H     -205.459      28.061     -79.137
  H     -206.567      28.933     -80.168

 3  4  5  6  7  8  9  10  11  12  13  23  28  29  30  31  32 0
 6-311+G(2d,p)
 ****
 33  34 0
 6-311+G(2d,p)
 ****
 1  2  14  15  16  17  18  19  20  21  22  24  25  26 0
 3-21G
 ****
 27  35  36  37  38  39  40  41  42  43  44  45 0
 3-21G
 ****


