%nproc=1
%NoSave
%Mem=1900MB
#P OB98/GEN NMR

erre ene a

0 1
  C      -67.441      48.137     -42.982
  O      -67.121      46.907     -43.611
  P      -65.590      46.426     -43.572
  C      -64.195      45.193     -41.762
  O      -65.232      46.124     -42.038
  C      -63.284      45.705     -40.646
  O      -62.613      46.913     -41.103
  C      -64.011      46.053     -39.337
  O      -63.118      45.724     -38.268
  C      -64.190      47.555     -39.463
  O      -64.488      48.206     -38.239
  C      -62.862      47.934     -40.111
  N      -61.151      52.738     -39.762
  C      -60.885      51.633     -39.030
  N      -61.373      50.384     -39.188
  C      -62.212      50.332     -40.237
  C      -62.593      51.377     -41.062
  C      -62.020      52.631     -40.793
  N      -62.300      53.760     -41.537
  N      -63.493      50.948     -42.014
  C      -63.656      49.665     -41.768
  N      -62.887      49.244     -40.717
  O      -64.782      47.772     -43.878
  O      -65.247      45.334     -44.537
  H      -63.689      48.245     -37.679
  H      -64.011      47.598     -44.450
  H      -60.189      51.768     -38.208
  H      -64.322      49.005     -42.306
  H      -62.033      47.912     -39.393
  H      -65.025      47.759     -40.145
  H      -64.948      45.503     -39.203
  H      -62.508      44.953     -40.459
  H      -63.587      45.049     -42.661
  H      -62.000      54.640     -41.144
  H      -63.096      53.714     -42.160
  H      -64.636      44.226     -41.497
  P      -63.727      45.398     -36.819
  C      -65.347      43.578     -36.005
  O      -64.869      44.308     -37.117
  O      -64.600      46.714     -36.554
  O      -62.738      45.081     -35.753
  H      -65.184      46.916     -37.307
  H      -66.180      42.950     -36.331
  H      -65.700      44.259     -35.226
  H      -64.553      42.936     -35.612
  H      -68.488      48.329     -43.086
  H      -66.886      48.928     -43.442
  H      -67.190      48.082     -41.943

 3  4  5  6  7  8  9  10  11  12  22  25  29  30  31  32 0
 6-311+G(2d,p)
 ****
 33  36  37 0
 6-311+G(2d,p)
 ****
 1  2  13  14  15  16  17  18  19  20  21  23  24  26 0
 3-21G
 ****
 27  28  34  35  38  39  40  41  42  43  44  45  46  47  48 0
 3-21G
 ****


