%nproc=1
%NoSave
%Mem=1900MB
#P OB98/GEN NMR

erre ene a

0 1
  C      -83.469     -48.454      22.208
  O      -84.140     -49.617      21.739
  P      -83.567     -51.052      22.190
  C      -82.642     -51.451      19.805
  O      -83.443     -51.948      20.859
  C      -82.601     -52.439      18.629
  O      -81.857     -51.827      17.536
  C      -81.929     -53.779      18.945
  O      -82.595     -54.780      18.163
  C      -80.516     -53.596      18.417
  O      -79.869     -54.840      18.166
  C      -80.798     -52.754      17.169
  N      -76.287     -53.123      14.781
  C      -77.241     -54.039      15.047
  N      -78.421     -53.870      15.693
  C      -78.566     -52.588      16.075
  C      -77.667     -51.550      15.899
  C      -76.473     -51.850      15.219
  N      -75.507     -50.915      14.935
  N      -78.163     -50.377      16.453
  C      -79.337     -50.704      16.951
  N      -79.627     -52.027      16.717
  O      -84.813     -51.700      22.964
  O      -82.352     -51.012      23.055
  H      -78.938     -54.656      17.935
  H      -84.610     -51.768      23.916
  H      -77.035     -55.058      14.696
  H      -79.996     -50.040      17.480
  H      -81.163     -53.366      16.330
  H      -79.921     -53.033      19.141
  H      -81.947     -54.049      20.007
  H      -83.624     -52.589      18.274
  H      -81.616     -51.313      20.176
  H      -74.747     -51.177      14.327
  H      -75.720     -49.925      15.089
  H      -83.016     -50.478      19.472
  P      -83.408     -55.907      18.964
  C      -82.187     -58.126      18.386
  O      -83.279     -57.262      18.124
  O      -84.937     -55.470      18.767
  O      -83.044     -56.002      20.419
  H      -85.470     -55.782      19.521
  H      -82.499     -59.161      18.234
  H      -81.818     -58.015      19.413
  H      -81.371     -57.886      17.695
  H      -83.960     -47.582      21.829
  H      -82.454     -48.467      21.870
  H      -83.489     -48.438      23.278

 3  4  5  6  7  8  9  10  11  12  22  25  29  30  31  32 0
 6-311+G(2d,p)
 ****
 33  36  37 0
 6-311+G(2d,p)
 ****
 1  2  13  14  15  16  17  18  19  20  21  23  24  26 0
 3-21G
 ****
 27  28  34  35  38  39  40  41  42  43  44  45  46  47  48 0
 3-21G
 ****


