%nproc=1
%NoSave
%Mem=1900MB
#P OB98/GEN NMR

erre ene a

0 1
  C      361.277    -545.487    -256.632
  O      361.816    -546.780    -256.398
  H      362.068    -544.853    -257.044
  H      360.939    -545.047    -255.694
  H      360.451    -545.535    -257.345
  P      360.838    -547.936    -255.881
  C      361.094    -549.361    -258.009
  O      360.199    -548.626    -257.188
  C      360.722    -550.841    -258.008
  O      359.417    -551.000    -258.625
  C      361.711    -551.727    -258.776
  O      361.853    -552.967    -258.081
  C      361.020    -551.958    -260.108
  O      361.434    -553.176    -260.727
  C      359.545    -551.948    -259.696
  N      356.612    -553.812    -263.370
  C      357.290    -554.458    -262.347
  N      357.187    -555.805    -262.317
  N      357.998    -553.834    -261.444
  C      357.997    -552.495    -261.595
  C      357.372    -551.739    -262.554
  C      356.607    -552.431    -263.556
  O      355.993    -551.911    -264.485
  N      357.640    -550.394    -262.381
  C      358.417    -550.346    -261.320
  N      358.675    -551.589    -260.808
  O      359.838    -547.522    -254.851
  O      361.834    -549.060    -255.322
  H      362.391    -553.077    -260.949
  H      361.900    -549.013    -254.354
  H      356.087    -554.336    -264.039
  H      358.829    -549.451    -260.882
  H      359.216    -552.931    -259.338
  H      361.244    -551.132    -260.796
  H      356.642    -556.344    -262.967
  H      362.695    -551.260    -258.901
  H      357.657    -556.304    -261.563
  H      360.625    -551.180    -256.971
  H      362.112    -549.232    -257.614
  H      361.058    -548.964    -259.031
  P      363.265    -553.328    -257.418
  C      362.411    -552.416    -255.168
  O      363.463    -552.394    -256.125
  O      364.424    -553.379    -258.353
  O      362.992    -554.770    -256.767
  H      363.827    -555.282    -256.763
  H      362.652    -551.761    -254.357
  H      362.287    -553.412    -254.797
  H      361.502    -552.092    -255.630

 6  7  8  9  10  11  12  13  14  15  26  29  33  34 0
 6-311+G(2d,p)
 ****
 36  38  39  40  41 0
 6-311+G(2d,p)
 ****
 1  2  3  4  5  16  17  18  19  20  21  22  23  24  25 0
 3-21G
 ****
 27  28  30  31  32  35  37  42  43  44  45  46  47 0
 3-21G
 ****
 48  49 0
 3-21G
 ****


