%nproc=1
%NoSave
%Mem=1900MB
#P OB98/GEN NMR

erre ene a

0 1
  C       44.304     -72.633      29.192
  O       44.182     -71.523      28.325
  H       44.713     -72.310      30.152
  H       43.311     -73.059      29.356
  H       44.948     -73.398      28.749
  P       45.547     -70.854      27.812
  C       46.048     -72.742      26.098
  O       45.746     -71.370      26.303
  C       45.713     -73.153      24.663
  O       44.320     -72.837      24.400
  C       46.559     -72.433      23.607
  O       46.871     -73.353      22.560
  C       45.630     -71.350      23.087
  O       45.967     -70.939      21.767
  C       44.271     -72.035      23.203
  N       42.461     -67.662      21.290
  C       43.514     -68.432      20.943
  N       43.925     -69.590      21.502
  C       43.092     -69.959      22.491
  C       41.982     -69.278      22.959
  C       41.676     -68.066      22.317
  N       40.627     -67.256      22.689
  N       41.405     -69.959      24.014
  C       42.155     -71.032      24.176
  N       43.188     -71.073      23.282
  O       46.656     -71.667      28.637
  O       45.666     -69.382      28.016
  H       45.326     -70.253      21.486
  H       46.715     -71.309      29.542
  H       44.109     -68.069      20.109
  H       42.001     -71.796      24.925
  H       44.058     -72.695      22.352
  H       45.681     -70.473      23.742
  H       47.483     -72.021      24.016
  H       45.812     -74.241      24.577
  H       45.459     -73.345      26.797
  H       40.514     -66.377      22.210
  H       40.068     -67.510      23.491
  H       47.114     -72.910      26.289
  P       48.391     -73.377      22.046
  C       49.606     -74.645      23.953
  O       49.106     -74.693      22.624
  O       49.076     -72.182      22.862
  O       48.527     -73.177      20.571
  H       49.570     -71.603      22.253
  H       50.052     -75.585      24.200
  H       48.802     -74.443      24.629
  H       50.340     -73.870      24.030

 6  7  8  9  10  11  12  13  14  15  25  28  32  33  34  35 0
 6-311+G(2d,p)
 ****
 36  39  40 0
 6-311+G(2d,p)
 ****
 1  2  3  4  5  16  17  18  19  20  21  22  23  24 0
 3-21G
 ****
 26  27  29  30  31  37  38  41  42  43  44  45  46  47 0
 3-21G
 ****
 48 0
 3-21G
 ****


