%nproc=1
%NoSave
%Mem=1900MB
#P OB98/GEN NMR

erre ene a

0 1
  C     -412.422    -169.280     262.273
  O     -412.914    -168.677     261.091
  H     -412.915    -170.250     262.403
  H     -412.652    -168.653     263.138
  H     -411.343    -169.439     262.193
  P     -412.296    -167.245     260.707
  C     -411.201    -168.281     258.602
  O     -410.999    -167.598     259.831
  C     -410.740    -167.418     257.425
  O     -409.374    -167.003     257.608
  C     -410.784    -168.118     256.075
  O     -412.099    -168.113     255.539
  C     -409.841    -167.237     255.264
  O     -410.534    -166.048     254.837
  C     -408.758    -166.866     256.295
  N     -403.837    -167.067     254.831
  C     -404.813    -166.172     254.579
  N     -406.107    -166.205     254.958
  C     -406.363    -167.307     255.687
  C     -405.472    -168.313     256.021
  C     -404.145    -168.163     255.572
  N     -403.148    -169.079     255.840
  N     -406.092    -169.292     256.775
  C     -407.333    -168.857     256.931
  N     -407.551    -167.677     256.262
  O     -412.089    -166.304     261.844
  O     -413.337    -166.751     259.593
  H     -409.989    -165.623     254.143
  H     -413.612    -167.493     259.029
  H     -404.518    -165.306     253.989
  H     -408.090    -169.346     257.528
  H     -408.436    -165.822     256.192
  H     -409.478    -167.734     254.363
  H     -410.362    -169.133     256.134
  H     -411.355    -166.506     257.414
  H     -412.259    -168.540     258.479
  H     -402.282    -168.981     255.337
  H     -403.410    -169.946     256.282
  H     -410.620    -169.211     258.638
  P     -412.556    -169.219     254.470
  C     -414.086    -170.423     256.154
  O     -412.946    -170.535     255.310
  O     -411.593    -169.453     253.356
  O     -413.970    -168.698     253.936
  H     -414.054    -168.877     252.982
  H     -414.249    -171.352     256.659
  H     -414.945    -170.183     255.563
  H     -413.922    -169.649     256.875

 6  7  8  9  10  11  12  13  14  15  25  28  32  33  34  35 0
 6-311+G(2d,p)
 ****
 36  39  40 0
 6-311+G(2d,p)
 ****
 1  2  3  4  5  16  17  18  19  20  21  22  23  24 0
 3-21G
 ****
 26  27  29  30  31  37  38  41  42  43  44  45  46  47 0
 3-21G
 ****
 48 0
 3-21G
 ****


