%nproc=1
%NoSave
%Mem=1900MB
#P OB98/GEN NMR

erre ene a

0 1
  C      295.102     104.699     115.236
  O      294.712     104.845     113.885
  H      294.528     103.892     115.697
  H      296.163     104.436     115.268
  H      294.952     105.629     115.788
  P      293.283     105.518     113.604
  C      290.818     104.842     114.058
  O      292.178     104.436     114.050
  C      289.943     103.758     114.688
  O      289.729     102.706     113.707
  C      290.544     103.113     115.947
  O      289.488     102.873     116.883
  C      291.064     101.782     115.439
  O      291.140     100.792     116.461
  C      290.044     101.460     114.349
  N      290.356      96.495     113.285
  C      289.547      97.193     114.111
  N      289.494      98.526     114.296
  C      290.346      99.155     113.467
  C      291.229      98.582     112.568
  C      291.226      97.179     112.503
  N      292.095      96.456     111.717
  N      291.980      99.559     111.941
  C      291.573     100.697     112.474
  N      290.591     100.503     113.401
  O      293.203     105.498     112.002
  O      293.097     106.890     114.154
  H      291.610     101.167     117.231
  H      293.615     106.305     111.645
  H      288.859      96.601     114.711
  H      291.977     101.673     112.248
  H      289.118     101.031     114.750
  H      292.064     101.916     115.015
  H      291.328     103.715     116.421
  H      288.960     104.193     114.911
  H      290.486     105.010     113.027
  H      292.093      95.452     111.819
  H      292.820      96.945     111.214
  H      290.724     105.781     114.616
  P      289.257     103.971     118.031
  C      290.694     105.131     119.867
  O      290.604     104.101     118.888
  O      288.249     103.242     119.035
  O      288.697     105.264     117.530
  H      287.653     103.893     119.449
  H      291.649     105.083     120.348
  H      289.921     105.000     120.595
  H      290.580     106.084     119.394

 6  7  8  9  10  11  12  13  14  15  25  28  32  33  34  35 0
 6-311+G(2d,p)
 ****
 36  39  40 0
 6-311+G(2d,p)
 ****
 1  2  3  4  5  16  17  18  19  20  21  22  23  24 0
 3-21G
 ****
 26  27  29  30  31  37  38  41  42  43  44  45  46  47 0
 3-21G
 ****
 48 0
 3-21G
 ****


