%nproc=1
%NoSave
%Mem=1900MB
#P OB98/GEN NMR

erre ene a

0 1
  C     -508.833     -30.994       6.511
  O     -508.250     -30.298       7.594
  H     -509.616     -31.653       6.897
  H     -508.079     -31.602       6.004
  H     -509.279     -30.290       5.803
  P     -507.085     -29.256       7.235
  C     -507.847     -27.650       9.132
  O     -506.791     -28.424       8.574
  C     -507.263     -26.503       9.954
  O     -506.546     -27.033      11.094
  C     -506.251     -25.657       9.195
  O     -506.866     -24.730       8.318
  C     -505.503     -24.995      10.345
  O     -506.202     -23.839      10.825
  C     -505.494     -26.093      11.412
  N     -501.083     -26.399      13.963
  C     -502.203     -25.678      14.182
  N     -503.345     -25.662      13.462
  C     -503.265     -26.525      12.432
  C     -502.193     -27.327      12.082
  C     -501.056     -27.246      12.903
  N     -499.901     -27.958      12.669
  N     -502.474     -28.044      10.938
  C     -503.698     -27.691      10.605
  N     -504.216     -26.777      11.481
  O     -507.822     -28.201       6.284
  O     -505.883     -29.851       6.581
  H     -507.125     -24.121      10.977
  H     -507.614     -28.402       5.352
  H     -502.177     -25.019      15.042
  H     -504.244     -28.059       9.743
  H     -505.706     -25.700      12.415
  H     -504.508     -24.677      10.033
  H     -505.553     -26.301       8.649
  H     -508.090     -25.884      10.328
  H     -508.460     -28.285       9.781
  H     -508.473     -27.264       8.319
  H     -499.102     -27.799      13.256
  H     -499.834     -28.506      11.817
  P     -505.916     -23.872       7.356
  C     -507.561     -23.729       5.335
  O     -506.864     -23.041       6.366
  O     -505.241     -24.967       6.403
  O     -504.892     -23.052       8.064
  H     -504.323     -24.708       6.195
  H     -508.143     -23.031       4.771
  H     -508.207     -24.463       5.770
  H     -506.857     -24.211       4.689

 6  7  8  9  10  11  12  13  14  15  25  28  32  33  34  35 0
 6-311+G(2d,p)
 ****
 36  37  40 0
 6-311+G(2d,p)
 ****
 1  2  3  4  5  16  17  18  19  20  21  22  23  24 0
 3-21G
 ****
 26  27  29  30  31  38  39 41  42  43  44  45  46  47  48 0
 3-21G
 ****


