%nproc=1
%NoSave
%Mem=1900MB
#P OB98/GEN NMR

erre ene a

0 1
  C      -66.732     -33.852     108.441
  O      -67.577     -34.934     108.779
  H      -66.190     -34.103     107.525
  H      -66.011     -33.670     109.241
  H      -67.328     -32.952     108.265
  P      -68.383     -34.808     110.164
  C      -67.570     -34.647     112.639
  O      -67.226     -34.872     111.279
  C      -66.588     -35.374     113.552
  O      -66.889     -36.787     113.600
  C      -65.128     -35.287     113.111
  O      -64.521     -34.043     113.417
  C      -64.542     -36.422     113.932
  O      -64.422     -36.010     115.308
  C      -65.631     -37.501     113.764
  N      -65.390     -38.386     112.619
  C      -64.545     -39.479     112.839
  O      -64.036     -39.669     113.941
  N      -64.262     -40.317     111.786
  C      -64.792     -40.100     110.623
  N      -64.474     -40.962     109.619
  C      -65.698     -38.968     110.350
  C      -65.952     -38.162     111.380
  O      -69.092     -36.235     110.312
  O      -69.307     -33.643     110.283
  H      -63.811     -35.250     115.318
  H      -69.498     -36.319     111.210
  H      -66.105     -38.819     109.360
  H      -66.608     -37.309     111.255
  H      -65.719     -38.117     114.668
  H      -63.546     -36.724     113.605
  H      -65.015     -35.526     112.046
  H      -66.720     -34.975     114.567
  H      -63.803     -41.692     109.821
  H      -68.586     -35.022     112.802
  H      -64.713     -40.792     108.651
  H      -67.544     -33.575     112.860
  P      -63.796     -33.264     112.212
  C      -61.808     -33.859     110.636
  O      -62.434     -34.050     111.901
  O      -63.295     -31.913     112.903
  O      -64.666     -32.997     111.022
  H      -63.329     -31.165     112.276
  H      -60.917     -34.449     110.586
  H      -61.559     -32.826     110.514
  H      -62.478     -34.159     109.858

 6  7  8  9  10  11  12  13  14  15  16  26  30  31  32  33  35 0
 6-311+G(2d,p)
 ****
 37  38 0
 6-311+G(2d,p)
 ****
 1  2  3  4  5  17  18  19  20  21  22  23  24  25 0
 3-21G
 ****
 27  28  29  34  36  39  40  41  42  43  44  45  46 0
 3-21G
 ****


