%nproc=1
%NoSave
%Mem=1900MB
#P OB98/GEN NMR

erre ene a

0 1
  C     1320.210    -571.751     -86.281
  O     1319.031    -571.141     -86.778
  H     1320.044    -572.836     -86.223
  H     1320.430    -571.374     -85.274
  H     1321.057    -571.551     -86.947
  P     1319.115    -569.583     -87.160
  C     1318.006    -569.862     -89.494
  O     1317.906    -569.308     -88.188
  C     1316.634    -569.808     -90.178
  O     1315.844    -570.965     -89.729
  C     1315.826    -568.544     -89.869
  O     1315.086    -568.167     -91.022
  C     1314.851    -569.033     -88.793
  O     1313.680    -568.237     -88.679
  C     1314.578    -570.462     -89.261
  N     1314.040    -571.306     -88.196
  C     1312.748    -571.049     -87.772
  O     1311.988    -570.220     -88.273
  N     1312.312    -571.809     -86.705
  C     1313.034    -572.756     -86.040
  O     1312.593    -573.375     -85.086
  C     1314.397    -572.969     -86.537
  C     1314.838    -572.263     -87.586
  O     1320.419    -569.515     -88.083
  O     1319.181    -568.643     -86.012
  H     1321.222    -569.345     -87.542
  H     1313.154    -568.578     -87.927
  H     1311.364    -571.620     -86.385
  H     1315.020    -573.708     -86.025
  H     1315.844    -572.384     -87.961
  H     1313.896    -570.453     -90.116
  H     1315.344    -569.041     -87.820
  H     1316.431    -567.703     -89.519
  H     1316.777    -569.923     -91.267
  H     1318.327    -570.911     -89.418
  H     1318.740    -569.300     -90.077
  P     1314.387    -566.718     -91.024
  C     1315.609    -565.814     -93.156
  O     1314.391    -566.257     -92.549
  O     1315.528    -565.841     -90.325
  O     1313.060    -566.717     -90.339
  H     1316.412    -566.131     -90.562
  H     1315.423    -565.546     -94.175
  H     1316.332    -566.602     -93.121
  H     1315.983    -564.963     -92.626

 6  7  8  9  10  11  12  13  14  15  16  27  31  32  33  34  35 0
 6-311+G(2d,p)
 ****
 36  37 0
 6-311+G(2d,p)
 ****
 1  2  3  4  5  17  18  19  20  21  22  23  24  25 0
 3-21G
 ****
 26  28  29  30  38  39  40  41  42  43  44  45 0
 3-21G
 ****


