%nproc=1
%NoSave
%Mem=1900MB
#P OB98/GEN NMR

erre ene a

0 1
  C        9.929     112.267     -22.418
  O        8.831     111.409     -22.176
  H        9.895     113.091     -21.700
  H        9.871     112.679     -23.429
  H       10.869     111.723     -22.289
  P        8.671     110.162     -23.176
  C        6.279     111.066     -23.605
  O        7.092     109.929     -23.355
  C        4.818     110.761     -23.284
  O        4.276     109.812     -24.226
  C        4.590     110.182     -21.892
  O        4.519     111.210     -20.918
  C        3.264     109.461     -22.086
  O        2.158     110.388     -22.022
  C        3.411     108.889     -23.503
  N        2.933     104.359     -25.683
  C        2.148     105.488     -25.792
  N        1.053     105.392     -26.581
  N        2.401     106.613     -25.178
  C        3.493     106.551     -24.379
  C        4.351     105.491     -24.183
  C        4.088     104.270     -24.914
  O        4.794     103.262     -24.923
  N        5.356     105.821     -23.310
  C        5.085     107.063     -22.952
  N        3.961     107.548     -23.571
  O        9.129     108.910     -22.285
  O        9.462     110.246     -24.436
  H        2.277     111.075     -22.701
  H        9.622     108.287     -22.852
  H        2.710     103.530     -26.205
  H        5.675     107.656     -22.265
  H        2.452     108.862     -24.035
  H        3.090     108.721     -21.304
  H        0.655     104.499     -26.835
  H        5.366     109.448     -21.638
  H        0.439     106.197     -26.600
  H        4.250     111.694     -23.407
  H        6.369     111.339     -24.661
  H        6.628     111.903     -22.989
  P        5.711     111.330     -19.856
  C        4.854     110.537     -17.534
  O        5.063     111.631     -18.417
  O        6.403     112.721     -20.252
  O        6.698     110.213     -19.894
  H        7.246     112.550     -20.714
  H        4.419     110.892     -16.623
  H        5.791     110.065     -17.322
  H        4.194     109.830     -17.992

 6  7  8  9  10  11  12  13  14  15  26  29  33  34 0
 6-311+G(2d,p)
 ****
 36  38  39  40  41 0
 6-311+G(2d,p)
 ****
 1  2  3  4  5  16  17  18  19  20  21  22  23  24  25 0
 3-21G
 ****
 27  28  30  31  32  35  37  42  43  44  45  46  47 0
 3-21G
 ****
 48  49 0
 3-21G
 ****


