%nproc=1
%NoSave
%Mem=1900MB
#P OB98/GEN NMR

erre ene a

0 1
  C      140.744     161.336    -131.633
  O      139.912     162.312    -132.229
  H      140.136     160.459    -131.397
  H      141.172     161.722    -130.705
  H      141.541     161.035    -132.318
  P      140.576     163.669    -132.766
  C      142.318     163.155    -134.585
  O      140.951     163.420    -134.308
  C      142.653     163.518    -136.031
  O      141.824     162.722    -136.916
  C      142.416     164.995    -136.365
  O      143.445     165.429    -137.254
  C      141.087     164.981    -137.093
  O      140.949     166.083    -137.990
  C      141.126     163.625    -137.795
  N      136.581     164.903    -139.590
  C      137.749     165.636    -139.516
  N      137.696     166.909    -139.965
  N      138.870     165.164    -139.042
  C      138.783     163.872    -138.642
  C      137.687     163.042    -138.662
  C      136.446     163.582    -139.176
  O      135.378     162.986    -139.253
  N      137.990     161.807    -138.144
  C      139.265     161.892    -137.810
  N      139.788     163.130    -138.083
  O      141.697     164.206    -131.938
  O      139.351     164.693    -132.848
  H      140.145     165.917    -138.528
  H      139.348     165.289    -132.075
  H      135.741     165.320    -139.957
  H      139.850     161.100    -137.366
  H      141.662     163.665    -138.751
  H      140.266     165.026    -136.367
  H      136.873     167.335    -140.359
  H      142.395     165.635    -135.478
  H      138.548     167.459    -139.944
  H      143.693     163.233    -136.228
  H      142.502     162.088    -134.422
  H      142.947     163.731    -133.898
  P      144.727     166.175    -136.645
  C      146.907     165.527    -135.433
  O      145.772     165.060    -136.156
  O      144.436     167.253    -135.654
  O      145.444     166.771    -137.953
  H      145.915     167.591    -137.707
  H      147.525     164.696    -135.164
  H      146.583     166.032    -134.547
  H      147.466     166.204    -136.045

 6  7  8  9  10  11  12  13  14  15  26  29  33  34 0
 6-311+G(2d,p)
 ****
 36  38  39  40  41 0
 6-311+G(2d,p)
 ****
 1  2  3  4  5  16  17  18  19  20  21  22  23  24  25 0
 3-21G
 ****
 27  28  30  31  32  35  37  42  43  44  45  46  47 0
 3-21G
 ****
 48  49 0
 3-21G
 ****


