%nproc=1
%NoSave
%Mem=1900MB
#P OB98/GEN NMR

erre ene a

0 1
  C      846.845    -378.944     -74.507
  O      846.703    -380.239     -75.064
  P      846.562    -381.476     -74.046
  C      848.055    -382.346     -72.099
  O      847.970    -381.548     -73.271
  C      849.262    -383.292     -72.168
  O      850.410    -382.583     -72.676
  C      849.684    -383.856     -70.826
  O      848.892    -384.976     -70.435
  C      851.108    -384.309     -71.158
  O      851.089    -385.561     -71.856
  C      851.583    -383.192     -72.079
  N      856.150    -380.905     -71.714
  C      855.729    -381.949     -72.438
  N      854.499    -382.508     -72.469
  C      853.666    -381.888     -71.600
  C      853.982    -380.825     -70.767
  C      855.279    -380.305     -70.853
  N      855.704    -379.212     -70.125
  N      852.867    -380.451     -70.030
  C      851.921    -381.280     -70.426
  N      852.337    -382.154     -71.390
  O      846.608    -382.746     -75.010
  O      845.356    -381.455     -73.178
  H      852.007    -385.902     -71.851
  H      846.183    -383.516     -74.566
  H      856.480    -382.401     -73.092
  H      850.903    -381.275     -70.046
  H      852.226    -383.558     -72.897
  H      851.714    -384.455     -70.258
  H      849.725    -383.092     -70.053
  H      849.002    -384.099     -72.871
  H      847.138    -382.937     -72.004
  H      856.591    -378.807     -70.372
  H      854.997    -378.671     -69.648
  H      848.142    -381.682     -71.221
  P      849.000    -385.430     -68.897
  C      850.709    -386.882     -67.554
  O      850.373    -386.227     -68.790
  O      847.882    -386.571     -68.782
  O      848.797    -384.329     -67.926
  H      847.565    -386.647     -67.872
  H      851.494    -387.615     -67.763
  H      849.820    -387.407     -67.156
  H      851.056    -386.143     -66.857
  H      846.928    -378.224     -75.294
  H      847.726    -378.911     -73.900
  H      845.989    -378.718     -73.906

 3  4  5  6  7  8  9  10  11  12  22  25  29  30  31  32 0
 6-311+G(2d,p)
 ****
 33  36  37 0
 6-311+G(2d,p)
 ****
 1  2  13  14  15  16  17  18  19  20  21  23  24  26 0
 3-21G
 ****
 27  28  34  35  38  39  40  41  42  43  44  45  46  47  48 0
 3-21G
 ****


