%nproc=1
%NoSave
%Mem=1900MB
#P OB98/GEN NMR

erre ene a

0 1
  C      -28.699    -472.868    -157.006
  O      -30.110    -472.919    -157.099
  P      -30.850    -472.349    -158.404
  C      -31.323    -469.979    -159.363
  O      -30.857    -470.754    -158.280
  C      -30.996    -468.493    -159.165
  O      -29.555    -468.359    -159.088
  C      -31.440    -467.577    -160.304
  O      -31.467    -466.231    -159.825
  C      -30.309    -467.746    -161.291
  O      -30.248    -466.673    -162.231
  C      -29.063    -467.888    -160.370
  N      -28.080    -468.834    -160.923
  C      -27.571    -468.536    -162.177
  O      -27.847    -467.499    -162.786
  N      -26.793    -469.505    -162.752
  C      -26.536    -470.727    -162.216
  O      -26.113    -471.685    -162.853
  C      -26.905    -470.892    -160.795
  C      -27.672    -469.960    -160.227
  O      -32.375    -472.766    -158.154
  O      -30.335    -472.885    -159.697
  H      -29.429    -466.815    -162.769
  H      -32.582    -473.596    -158.619
  H      -26.545    -469.348    -163.722
  H      -26.585    -471.793    -160.281
  H      -28.002    -470.072    -159.199
  H      -28.569    -466.922    -160.217
  H      -30.460    -468.670    -161.861
  H      -32.408    -467.846    -160.741
  H      -31.420    -468.155    -158.212
  H      -32.406    -470.127    -159.474
  H      -30.867    -470.323    -160.299
  P      -32.448    -465.192    -160.558
  C      -32.204    -463.697    -162.630
  O      -31.774    -464.875    -161.985
  O      -32.857    -464.008    -159.763
  O      -33.707    -466.104    -160.958
  H      -34.481    -465.536    -161.142
  H      -31.388    -463.318    -163.254
  H      -32.496    -462.915    -161.908
  H      -33.062    -463.919    -163.277
  H      -28.388    -473.290    -156.073
  H      -28.374    -471.850    -157.063
  H      -28.268    -473.425    -157.811

 3  4  5  6  7  8  9  10  11  12  13  23  28  29  30  31  32 0
 6-311+G(2d,p)
 ****
 33  34 0
 6-311+G(2d,p)
 ****
 1  2  14  15  16  17  18  19  20  21  22  24  25  26  27 0
 3-21G
 ****
 35  36  37  38  39  40  41  42  43  44  45 0
 3-21G
 ****


