%nproc=1
%NoSave
%Mem=1900MB
#P OB98/GEN NMR

erre ene a

0 1
  C      981.423     -29.148     -65.916
  O      981.015     -28.147     -65.007
  H      982.405     -29.518     -65.614
  H      981.502     -28.743     -66.928
  H      980.719     -29.985     -65.903
  P      979.647     -27.364     -65.300
  C      980.944     -25.401     -66.380
  O      979.936     -26.387     -66.544
  C      981.162     -24.626     -67.683
  O      979.887     -24.067     -68.107
  C      982.152     -23.461     -67.555
  O      982.789     -23.291     -68.835
  C      981.222     -22.298     -67.258
  O      981.872     -21.063     -67.422
  C      980.068     -22.629     -68.205
  N      978.853     -21.901     -67.887
  C      978.251     -21.205     -68.936
  O      978.752     -21.218     -70.064
  N      977.110     -20.483     -68.685
  C      976.654     -20.408     -67.474
  N      975.533     -19.665     -67.293
  C      977.297     -21.077     -66.321
  C      978.379     -21.802     -66.598
  O      979.012     -26.705     -64.121
  O      978.689     -28.482     -65.933
  H      981.268     -20.317     -67.227
  H      978.026     -28.758     -65.274
  H      976.885     -20.966     -65.327
  H      978.912     -22.330     -65.822
  H      980.341     -22.411     -69.252
  H      980.880     -22.337     -66.224
  H      982.908     -23.629     -66.779
  H      981.475     -25.330     -68.462
  H      975.134     -19.212     -68.104
  H      981.864     -25.912     -66.095
  H      975.104     -19.511     -66.391
  H      980.668     -24.709     -65.581
  P      984.168     -24.001     -69.216
  C      985.310     -22.416     -67.526
  O      985.241     -23.741     -68.045
  O      984.671     -23.659     -70.585
  O      983.886     -25.575     -69.102
  H      984.440     -26.045     -69.748
  H      986.055     -22.372     -66.759
  H      984.360     -22.143     -67.116
  H      985.567     -21.738     -68.313

 6  7  8  9  10  11  12  13  14  15  16  26  30  31  32  33  35 0
 6-311+G(2d,p)
 ****
 37  38 0
 6-311+G(2d,p)
 ****
 1  2  3  4  5  17  18  19  20  21  22  23  24  25 0
 3-21G
 ****
 27  28  29  34  36  39  40  41  42  43  44  45  46 0
 3-21G
 ****


