%nproc=1
%NoSave
%Mem=1900MB
#P OB98/GEN NMR

erre ene a

0 1
  C       25.767     -99.848     545.896
  O       25.089     -98.934     546.767
  P       25.607     -97.419     546.815
  C       26.743     -97.378     549.157
  O       25.658     -96.951     548.349
  C       26.501     -96.999     550.621
  O       26.497     -95.568     550.817
  C       25.159     -97.491     551.161
  O       25.213     -98.852     551.577
  C       24.976     -96.588     552.376
  O       25.756     -97.085     553.472
  C       25.549     -95.258     551.873
  N       20.800     -93.601     552.493
  C       21.533     -94.522     553.231
  N       20.907     -95.077     554.289
  N       22.758     -94.858     552.951
  C       23.265     -94.215     551.870
  C       22.648     -93.290     551.057
  C       21.280     -92.929     551.372
  O       20.580     -92.129     550.750
  N       23.480     -92.861     550.068
  C       24.617     -93.505     550.271
  N       24.525     -94.360     551.353
  O       24.357     -96.594     546.231
  O       26.852     -97.164     546.020
  H       26.673     -97.207     553.136
  H       24.668     -95.776     545.808
  H       19.866     -93.375     552.753
  H       25.510     -93.399     549.682
  H       26.085     -94.711     552.654
  H       23.937     -96.552     552.710
  H       19.974     -94.821     554.592
  H       24.350     -97.319     550.429
  H       21.434     -95.724     554.862
  H       27.303     -97.438     551.230
  H       27.674     -96.920     548.809
  H       26.880     -98.457     549.041
  P       24.919     -99.987     550.476
  C       22.757    -100.709     551.714
  O       24.018    -101.088     551.215
  O       26.349    -100.691     550.309
  O       24.401     -99.471     549.178
  H       26.437    -101.032     549.404
  H       22.224    -101.610     552.041
  H       22.168    -100.197     550.962
  H       22.884    -100.048     552.592
  H       25.313    -100.814     545.970
  H       26.796     -99.914     546.180
  H       25.697     -99.498     544.887

 3  4  5  6  7  8  9  10  11  12  23  26  30  31 0
 6-311+G(2d,p)
 ****
 33  35  36  37  38 0
 6-311+G(2d,p)
 ****
 1  2  13  14  15  16  17  18  19  20  21  22  24  25 0
 3-21G
 ****
 27  28  29  32  34  39  40  41  42  43  44  45  46  47  48  49 0
 3-21G
 ****


