%nproc=1
%NoSave
%Mem=1900MB
#P OB98/GEN NMR

erre ene a

0 1
  C       44.523    -161.269    -264.135
  O       43.148    -161.207    -263.752
  P       42.226    -160.035    -264.346
  C       40.327    -161.337    -265.503
  O       40.704    -160.548    -264.383
  C       38.873    -161.811    -265.369
  O       38.780    -162.913    -264.419
  C       37.934    -160.705    -264.866
  O       36.625    -160.859    -265.438
  C       37.829    -161.001    -263.381
  O       36.665    -160.412    -262.807
  C       37.841    -162.531    -263.395
  N       37.409    -166.634    -260.360
  C       36.982    -166.402    -261.620
  N       37.154    -165.292    -262.372
  C       37.858    -164.367    -261.701
  C       38.366    -164.464    -260.416
  C       38.111    -165.664    -259.726
  N       38.519    -165.890    -258.431
  N       39.032    -163.309    -260.058
  C       38.887    -162.510    -261.096
  N       38.216    -163.111    -262.125
  O       42.712    -159.407    -265.607
  O       42.199    -158.970    -263.147
  H       36.604    -160.724    -261.885
  H       42.284    -158.068    -263.520
  H       36.427    -167.211    -262.084
  H       39.234    -161.486    -261.146
  H       36.861    -162.940    -263.672
  H       38.709    -160.604    -262.861
  H       38.289    -159.688    -265.061
  H       38.532    -162.196    -266.339
  H       40.994    -162.196    -265.589
  H       38.190    -166.729    -257.980
  H       38.908    -165.122    -257.901
  H       40.471    -160.752    -266.419
  P       36.287    -159.901    -266.690
  C       34.834    -161.668    -267.957
  O       34.896    -160.436    -267.280
  O       37.413    -159.775    -267.662
  O       35.907    -158.525    -265.962
  H       35.255    -158.611    -265.245
  H       33.789    -161.907    -268.164
  H       35.260    -162.472    -267.348
  H       35.375    -161.601    -268.910
  H       44.990    -162.103    -263.654
  H       45.016    -160.366    -263.842
  H       44.593    -161.385    -265.196

 3  4  5  6  7  8  9  10  11  12  22  25  29  30  31  32 0
 6-311+G(2d,p)
 ****
 33  36  37 0
 6-311+G(2d,p)
 ****
 1  2  13  14  15  16  17  18  19  20  21  23  24  26 0
 3-21G
 ****
 27  28  34  35  38  39  40  41  42  43  44  45  46  47  48 0
 3-21G
 ****


