%nproc=1
%NoSave
%Mem=1900MB
#P OB98/GEN NMR

erre ene a

0 1
  C      667.312     838.669    -899.340
  O      666.976     839.977    -899.760
  H      668.357     838.484    -899.590
  H      666.686     837.941    -899.870
  H      667.179     838.550    -898.270
  P      665.613     840.631    -899.210
  C      666.825     841.875    -897.300
  O      665.841     840.909    -897.640
  C      667.409     841.597    -895.890
  O      666.317     841.621    -894.910
  C      668.021     840.201    -895.830
  O      669.082     840.105    -894.880
  C      666.849     839.331    -895.350
  O      667.273     838.109    -894.760
  C      666.151     840.276    -894.390
  N      662.609     837.119    -892.550
  C      663.993     836.945    -892.610
  N      664.476     835.782    -892.150
  N      664.814     837.848    -893.110
  C      664.148     838.938    -893.590
  C      662.814     839.217    -893.620
  C      661.921     838.242    -893.040
  O      660.689     838.320    -892.970
  N      662.534     840.416    -894.230
  C      663.718     840.869    -894.600
  N      664.740     840.021    -894.220
  O      664.583     839.422    -899.200
  O      665.100     841.803    -900.000
  H      667.630     838.327    -893.870
  H      663.667     839.760    -899.270
  H      662.028     836.412    -892.150
  H      663.902     841.810    -895.120
  H      666.607     840.253    -893.410
  H      666.247     839.067    -896.220
  H      663.880     835.008    -891.920
  H      668.392     839.875    -896.810
  H      665.420     835.521    -892.450
  H      668.110     842.389    -895.610
  H      666.351     842.852    -897.310
  H      667.640     841.879    -898.030
  P      670.577     840.072    -895.430
  C      671.603     841.840    -893.770
  O      671.249     841.505    -895.090
  O      670.398     840.086    -897.030
  O      671.364     838.900    -894.970
  H      670.573     839.207    -897.400
  H      672.029     842.821    -893.753
  H      672.318     841.134    -893.403
  H      670.731     841.819    -893.151

 6  7  8  9  10  11  12  13  14  15  26  29  33  34 0
 6-311+G(2d,p)
 ****
 36  38  39  40  41 0
 6-311+G(2d,p)
 ****
 1  2  3  4  5  16  17  18  19  20  21  22  23  24  25 0
 3-21G
 ****
 27  28  30  31  32  35  37  42  43  44  45  46  47 0
 3-21G
 ****
 48  49 0
 3-21G
 ****


