%nproc=1
%NoSave
%Mem=1900MB
#P OB98/GEN NMR

erre ene a

0 1
  C      538.869    -167.916     123.366
  O      538.136    -167.567     122.181
  P      538.794    -167.639     120.718
  C      539.023    -169.437     118.881
  O      538.914    -169.182     120.284
  C      538.808    -170.924     118.561
  O      539.904    -171.715     119.058
  C      537.546    -171.526     119.158
  O      536.408    -171.165     118.394
  C      537.888    -173.014     119.144
  O      537.660    -173.566     117.831
  C      539.388    -172.997     119.468
  N      542.098    -175.829     122.765
  C      542.051    -175.802     121.412
  N      541.296    -175.023     120.603
  C      540.546    -174.184     121.334
  C      540.480    -174.097     122.714
  C      541.296    -174.971     123.444
  N      541.318    -175.008     124.822
  N      539.563    -173.134     123.098
  C      539.109    -172.631     121.963
  N      539.669    -173.232     120.867
  O      540.062    -166.866     120.582
  O      537.669    -167.062     119.735
  H      536.701    -173.550     117.671
  H      538.091    -166.663     118.951
  H      542.718    -176.502     120.911
  H      538.375    -171.835     121.888
  H      539.932    -173.756     118.888
  H      537.284    -173.591     119.850
  H      537.421    -171.191     120.198
  H      538.803    -171.028     117.468
  H      540.023    -169.132     118.555
  H      541.909    -175.690     125.274
  H      540.694    -174.400     125.338
  H      538.275    -168.835     118.366
  P      535.300    -170.182     119.017
  C      535.125    -167.666     119.493
  O      535.994    -168.756     119.235
  O      534.553    -170.717     120.197
  O      534.317    -169.905     117.785
  H      533.414    -169.731     118.115
  H      534.707    -167.312     118.547
  H      535.698    -166.868     119.950
  H      534.326    -167.955     120.170
  H      538.240    -167.795     124.223
  H      539.723    -167.278     123.458
  H      539.190    -168.935     123.300

 3  4  5  6  7  8  9  10  11  12  22  25  29  30  31  32 0
 6-311+G(2d,p)
 ****
 33  36  37 0
 6-311+G(2d,p)
 ****
 1  2  13  14  15  16  17  18  19  20  21  23  24  26 0
 3-21G
 ****
 27  28  34  35  38  39  40  41  42  43  44  45  46  47  48 0
 3-21G
 ****


