%nproc=1
%NoSave
%Mem=1900MB
#P OB98/GEN NMR

erre ene a

0 1
  C      398.277    -184.189     125.335
  O      398.375    -182.897     125.928
  P      397.185    -181.834     125.994
  C      397.945    -180.577     123.821
  O      396.927    -181.285     124.515
  C      397.524    -180.140     122.409
  O      396.566    -179.057     122.504
  C      398.724    -179.596     121.634
  O      399.606    -180.479     120.973
  C      398.146    -178.510     120.738
  O      397.825    -178.995     119.431
  C      396.873    -178.089     121.478
  N      396.465    -173.035     120.764
  C      396.339    -174.059     119.846
  N      396.128    -173.695     118.562
  N      396.430    -175.327     120.157
  C      396.732    -175.545     121.457
  C      396.897    -174.616     122.454
  C      396.739    -173.218     122.112
  O      396.824    -172.271     122.890
  N      397.221    -175.214     123.649
  C      397.269    -176.499     123.365
  N      396.974    -176.751     122.048
  O      397.286    -180.819     127.083
  O      395.887    -182.747     126.290
  H      398.661    -179.234     118.988
  H      395.288    -182.200     126.836
  H      396.360    -172.078     120.475
  H      397.507    -177.281     124.074
  H      396.011    -178.069     120.799
  H      398.866    -177.694     120.598
  H      396.165    -172.744     118.245
  H      399.360    -179.059     122.360
  H      396.252    -174.426     117.860
  H      397.010    -180.952     121.892
  H      398.817    -181.239     123.776
  H      398.249    -179.702     124.401
  P      401.006    -181.020     121.538
  C      402.261    -178.789     121.528
  O      401.719    -179.823     122.326
  O      401.917    -181.166     120.227
  O      400.935    -182.314     122.280
  H      402.693    -181.724     120.418
  H      402.970    -178.209     122.126
  H      401.465    -178.124     121.189
  H      402.789    -179.199     120.660
  H      399.215    -184.696     125.427
  H      398.026    -184.088     124.300
  H      397.517    -184.753     125.833

 3  4  5  6  7  8  9  10  11  12  23  26  30  31 0
 6-311+G(2d,p)
 ****
 33  35  36  37  38 0
 6-311+G(2d,p)
 ****
 1  2  13  14  15  16  17  18  19  20  21  22  24  25 0
 3-21G
 ****
 27  28  29  32  34  39  40  41  42  43  44  45  46  47  48  49 0
 3-21G
 ****


