%nproc=1
%NoSave
%Mem=1900MB
#P OB98/GEN NMR

erre ene a

0 1
  C       -2.762    -291.810     115.824
  O       -2.419    -290.593     115.150
  P       -1.427    -289.574     115.896
  C       -1.559    -287.901     117.889
  O       -2.197    -288.931     117.149
  C       -2.513    -287.316     118.937
  O       -3.592    -286.580     118.322
  C       -3.184    -288.365     119.809
  O       -2.334    -288.781     120.873
  C       -4.370    -287.584     120.355
  O       -3.946    -286.744     121.448
  C       -4.773    -286.722     119.149
  N       -9.850    -287.325     118.733
  C       -9.084    -286.727     119.674
  N       -7.740    -286.621     119.724
  C       -7.177    -287.206     118.655
  C       -7.825    -287.860     117.612
  C       -9.224    -287.911     117.675
  N       -9.999    -288.519     116.711
  N       -6.914    -288.345     116.698
  C       -5.737    -287.979     117.166
  N       -5.847    -287.298     118.352
  O       -1.326    -288.352     114.866
  O       -0.080    -290.151     116.199
  H       -4.752    -286.347     121.828
  H       -0.432    -287.963     114.901
  H       -9.628    -286.264     120.498
  H       -4.789    -288.181     116.691
  H       -5.093    -285.711     119.449
  H       -5.162    -288.237     120.744
  H       -3.536    -289.215     119.201
  H       -1.943    -286.622     119.569
  H       -1.215    -287.112     117.214
  H      -11.003    -288.487     116.813
  H       -9.543    -288.933     115.915
  H       -0.658    -288.309     118.366
  P       -1.855    -290.316     120.872
  C       -3.107    -292.591     120.749
  O       -3.181    -291.182     120.628
  O       -1.488    -290.573     122.406
  O       -0.705    -290.604     119.958
  H       -0.781    -291.244     122.476
  H       -4.120    -292.990     120.859
  H       -2.516    -292.886     121.621
  H       -2.659    -293.014     119.843
  H       -3.425    -292.383     115.210
  H       -3.244    -291.581     116.751
  H       -1.873    -292.375     116.014

 3  4  5  6  7  8  9  10  11  12  22  25  29  30  31  32 0
 6-311+G(2d,p)
 ****
 33  36  37 0
 6-311+G(2d,p)
 ****
 1  2  13  14  15  16  17  18  19  20  21  23  24  26 0
 3-21G
 ****
 27  28  34  35  38  39  40  41  42  43  44  45  46  47  48 0
 3-21G
 ****


