%nproc=1
%NoSave
%Mem=1900MB
#P OB98/GEN NMR

erre ene a

0 1
  C     -254.235     476.085     -91.817
  O     -254.330     477.487     -91.696
  H     -253.912     475.672     -90.858
  H     -253.493     475.827     -92.579
  H     -255.202     475.645     -92.080
  P     -255.083     478.314     -92.839
  C     -257.413     479.424     -92.915
  O     -256.645     478.317     -92.470
  C     -258.906     479.195     -92.650
  O     -259.347     478.042     -93.416
  C     -259.170     478.874     -91.171
  O     -260.478     479.269     -90.768
  C     -259.079     477.358     -91.137
  O     -259.774     476.781     -90.031
  C     -259.668     476.983     -92.495
  N     -260.078     471.902     -92.415
  C     -260.651     472.838     -91.575
  N     -261.445     472.357     -90.586
  N     -260.453     474.124     -91.683
  C     -259.586     474.459     -92.667
  C     -258.933     473.622     -93.546
  C     -259.192     472.203     -93.442
  O     -258.690     471.328     -94.141
  N     -258.122     474.328     -94.404
  C     -258.278     475.584     -94.040
  N     -259.174     475.720     -93.007
  O     -255.031     477.337     -94.108
  O     -254.501     479.660     -93.158
  H     -259.387     477.148     -89.219
  H     -255.136     477.845     -94.933
  H     -260.287     470.927     -92.309
  H     -257.782     476.431     -94.499
  H     -260.761     476.910     -92.438
  H     -258.028     477.081     -91.037
  H     -261.464     471.373     -90.358
  H     -258.443     479.328     -90.511
  H     -261.610     472.982     -89.795
  H     -259.488     480.052     -93.004
  H     -257.223     479.535     -93.986
  H     -257.071     480.344     -92.432
  P     -260.691     480.762     -90.222
  C     -260.886     483.074     -91.498
  O     -261.211     481.704     -91.403
  O     -259.208     481.283     -89.942
  O     -261.556     480.854     -89.002
  H     -259.078     481.448     -88.990
  H     -261.348     483.491     -92.369
  H     -259.824     483.184     -91.570
  H     -261.239     483.586     -90.627

 6  7  8  9  10  11  12  13  14  15  26  29  33  34 0
 6-311+G(2d,p)
 ****
 36  38  39  40  41 0
 6-311+G(2d,p)
 ****
 1  2  3  4  5  16  17  18  19  20  21  22  23  24  25 0
 3-21G
 ****
 27  28  30  31  32  35  37  42  43  44  45  46  47 0
 3-21G
 ****
 48  49 0
 3-21G
 ****


