%nproc=1
%NoSave
%Mem=1900MB
#P OB98/GEN NMR

erre ene a

0 1
  C      -57.833      12.911     -53.983
  O      -56.436      12.698     -53.964
  H      -58.066      13.910     -53.606
  H      -58.188      12.832     -55.015
  H      -58.339      12.156     -53.377
  P      -55.723      12.793     -52.529
  C      -56.255      10.579     -51.300
  O      -55.331      11.292     -52.108
  C      -56.012       9.078     -51.427
  O      -56.531       8.643     -52.712
  C      -54.530       8.673     -51.349
  O      -54.348       7.611     -50.404
  C      -54.217       8.145     -52.737
  O      -53.280       7.074     -52.725
  C      -55.584       7.708     -53.245
  N      -53.750       5.409     -57.408
  C      -53.819       5.003     -56.122
  N      -54.407       5.621     -55.078
  C      -54.996       6.763     -55.473
  C      -55.031       7.293     -56.752
  C      -54.350       6.573     -57.748
  N      -54.232       7.013     -59.047
  N      -55.726       8.488     -56.770
  C      -56.067       8.697     -55.514
  N      -55.635       7.689     -54.692
  O      -56.933      13.159     -51.544
  O      -54.626      13.799     -52.447
  H      -53.193       6.754     -53.641
  H      -56.749      14.022     -51.127
  H      -53.330       4.059     -55.899
  H      -56.580       9.573     -55.140
  H      -55.855       6.710     -52.879
  H      -53.805       8.960     -53.344
  H      -53.879       9.511     -51.084
  H      -56.592       8.560     -50.654
  H      -57.277      10.804     -51.626
  H      -53.630       6.495     -59.666
  H      -54.583       7.933     -59.277
  H      -56.140      10.898     -50.259
  P      -53.848       8.045     -48.938
  C      -55.978       8.656     -47.582
  O      -55.004       7.666     -47.887
  O      -53.887       9.644     -48.999
  O      -52.486       7.546     -48.595
  H      -53.007      10.007     -48.778
  H      -56.677       8.262     -46.874
  H      -56.495       8.935     -48.476
  H      -55.495       9.516     -47.167

 6  7  8  9  10  11  12  13  14  15  25  28  32  33  34  35 0
 6-311+G(2d,p)
 ****
 36  39  40 0
 6-311+G(2d,p)
 ****
 1  2  3  4  5  16  17  18  19  20  21  22  23  24 0
 3-21G
 ****
 26  27  29  30  31  37  38  41  42  43  44  45  46  47  48 0
 3-21G
 ****


