%nproc=1
%NoSave
%Mem=1900MB
#P OB98/GEN NMR

erre ene a

0 1
  C       23.884     279.427     280.111
  O       22.846     279.695     279.197
  H       24.332     280.376     280.416
  H       24.658     278.811     279.650
  H       23.489     278.928     281.002
  P       22.138     278.465     278.442
  C       23.681     278.494     276.392
  O       23.312     277.785     277.570
  C       24.597     277.657     275.499
  O       24.488     278.110     274.124
  C       26.079     277.721     275.892
  O       26.626     276.401     275.905
  C       26.710     278.543     274.776
  O       28.103     278.279     274.634
  C       25.823     278.155     273.588
  N       25.927     279.091     272.472
  C       27.040     278.948     271.639
  O       27.894     278.088     271.887
  N       27.184     279.800     270.575
  C       26.321     280.746     270.387
  N       26.525     281.565     269.321
  C       25.157     280.964     271.268
  C       25.017     280.105     272.275
  O       20.914     278.830     277.668
  O       21.872     277.386     279.590
  H       28.231     277.308     274.580
  H       21.172     276.753     279.292
  H       24.468     281.774     271.074
  H       24.184     280.180     272.968
  H       26.080     277.153     273.222
  H       26.588     279.613     274.995
  H       26.246     278.177     276.864
  H       24.228     276.621     275.506
  H       27.337     281.383     268.738
  H       24.183     279.422     276.685
  H       25.923     282.338     269.080
  H       22.768     278.738     275.838
  P       26.482     275.592     277.286
  C       28.558     276.595     278.463
  O       27.144     276.480     278.449
  O       27.501     274.373     277.103
  O       25.089     275.118     277.561
  H       27.016     273.562     276.856
  H       28.858     277.210     279.285
  H       28.889     277.038     277.547
  H       28.994     275.623     278.567

 6  7  8  9  10  11  12  13  14  15  16  26  30  31  32  33  35 0
 6-311+G(2d,p)
 ****
 37  38 0
 6-311+G(2d,p)
 ****
 1  2  3  4  5  17  18  19  20  21  22  23  24  25 0
 3-21G
 ****
 27  28  29  34  36  39  40  41  42  43  44  45  46 0
 3-21G
 ****


