%nproc=1
%NoSave
%Mem=1900MB
#P OB98/GEN NMR

erre ene a

0 1
  C     -164.795     -54.222    -324.701
  O     -164.888     -55.634    -324.589
  P     -166.171     -56.424    -325.143
  C     -166.231     -57.706    -322.915
  O     -166.962     -56.900    -323.831
  C     -167.184     -58.382    -321.936
  O     -167.915     -57.352    -321.225
  C     -168.259     -59.275    -322.555
  O     -167.833     -60.601    -322.835
  C     -169.286     -59.304    -321.433
  O     -168.866     -60.229    -320.413
  C     -169.229     -57.869    -320.902
  N     -173.660     -55.446    -320.085
  C     -172.874     -56.197    -319.278
  N     -171.718     -56.822    -319.576
  C     -171.365     -56.581    -320.846
  C     -172.054     -55.833    -321.788
  C     -173.258     -55.246    -321.362
  N     -174.043     -54.462    -322.182
  N     -171.384     -55.827    -322.997
  C     -170.303     -56.547    -322.779
  N     -170.242     -57.017    -321.496
  O     -165.860     -57.490    -326.136
  O     -167.115     -55.279    -325.737
  H     -168.979     -61.129    -320.777
  H     -167.788     -55.672    -326.326
  H     -173.229     -56.310    -318.255
  H     -169.544     -56.758    -323.519
  H     -169.343     -57.818    -319.812
  H     -170.276     -59.630    -321.767
  H     -168.707     -58.807    -323.440
  H     -166.590     -58.940    -321.202
  H     -165.544     -57.058    -322.360
  H     -174.816     -53.976    -321.756
  H     -173.665     -54.183    -323.077
  H     -165.640     -58.445    -323.464
  P     -168.676     -61.425    -323.930
  C     -169.079     -63.396    -322.257
  O     -169.630     -62.404    -323.093
  O     -167.852     -62.078    -324.983
  O     -169.688     -60.323    -324.501
  H     -170.354     -60.008    -323.870
  H     -169.879     -63.843    -321.660
  H     -168.335     -62.970    -321.578
  H     -168.614     -64.181    -322.860
  H     -163.871     -53.891    -324.275
  H     -165.611     -53.768    -324.179
  H     -164.833     -53.943    -325.733

 3  4  5  6  7  8  9  10  11  12  22  25  29  30  31  32 0
 6-311+G(2d,p)
 ****
 33  36  37 0
 6-311+G(2d,p)
 ****
 1  2  13  14  15  16  17  18  19  20  21  23  24  26 0
 3-21G
 ****
 27  28  34  35  38  39  40  41  42  43  44  45  46  47  48 0
 3-21G
 ****


