%nproc=1
%NoSave
%Mem=1900MB
#P OB98/GEN NMR

erre ene a

0 1
  C     -179.695      86.356    -251.187
  O     -180.225      87.353    -250.343
  H     -180.354      86.250    -252.054
  H     -179.658      85.395    -250.667
  H     -178.699      86.634    -251.536
  P     -179.480      87.692    -248.961
  C     -177.731      89.239    -250.026
  O     -178.859      89.164    -249.164
  C     -177.582      90.643    -250.613
  O     -178.617      90.869    -251.607
  C     -177.691      91.765    -249.569
  O     -176.631      92.706    -249.755
  C     -179.023      92.427    -249.894
  O     -179.095      93.780    -249.454
  C     -179.085      92.215    -251.410
  N     -180.429      92.420    -251.938
  C     -180.546      93.343    -252.982
  O     -179.548      93.924    -253.412
  N     -181.792      93.626    -253.477
  C     -182.837      93.073    -252.944
  N     -184.044      93.417    -253.463
  C     -182.762      92.114    -251.821
  C     -181.537      91.834    -251.374
  O     -178.509      86.654    -248.506
  O     -180.660      87.950    -247.912
  H     -179.965      94.147    -249.718
  H     -180.312      87.813    -246.999
  H     -183.662      91.686    -251.409
  H     -181.381      91.143    -250.552
  H     -178.398      92.894    -251.932
  H     -179.831      91.869    -249.406
  H     -177.667      91.401    -248.542
  H     -176.625      90.695    -251.151
  H     -184.051      94.083    -254.229
  H     -177.851      88.500    -250.827
  H     -184.927      93.072    -253.115
  H     -176.835      88.997    -249.445
  P     -175.802      93.109    -248.441
  C     -173.493      92.725    -249.562
  O     -174.360      93.638    -248.907
  O     -175.492      91.698    -247.753
  O     -176.551      94.017    -247.521
  H     -176.013      91.609    -246.931
  H     -172.577      93.219    -249.810
  H     -173.960      92.369    -250.457
  H     -173.289      91.899    -248.913

 6  7  8  9  10  11  12  13  14  15  16  26  30  31  32  33  35 0
 6-311+G(2d,p)
 ****
 37  38 0
 6-311+G(2d,p)
 ****
 1  2  3  4  5  17  18  19  20  21  22  23  24  25 0
 3-21G
 ****
 27  28  29  34  36  39  40  41  42  43  44  45  46 0
 3-21G
 ****


