%nproc=1
%NoSave
%Mem=1900MB
#P OB98/GEN NMR

erre ene a

0 1
  C     -206.596    -128.338     353.725
  O     -207.550    -127.348     353.407
  H     -206.964    -129.307     353.375
  H     -206.453    -128.386     354.808
  H     -205.643    -128.121     353.235
  P     -207.204    -125.842     353.843
  C     -209.610    -125.659     354.801
  O     -208.616    -125.078     353.969
  C     -210.864    -125.983     353.984
  O     -211.224    -124.817     353.189
  C     -210.688    -127.163     353.017
  O     -211.905    -127.914     352.981
  C     -210.492    -126.483     351.675
  O     -210.826    -127.334     350.580
  C     -211.407    -125.274     351.834
  N     -212.198    -123.762     347.098
  C     -212.696    -124.849     347.786
  N     -213.534    -125.668     347.109
  N     -212.398    -125.116     349.034
  C     -211.570    -124.201     349.592
  C     -210.999    -123.087     349.018
  C     -211.319    -122.818     347.632
  O     -210.893    -121.882     346.958
  N     -210.187    -122.433     349.908
  C     -210.270    -123.144     351.021
  N     -211.098    -124.226     350.877
  O     -206.557    -125.210     352.519
  O     -206.309    -125.705     355.028
  H     -211.797    -127.295     350.456
  H     -205.907    -124.517     352.751
  H     -212.451    -123.611     346.137
  H     -209.750    -122.928     351.946
  H     -212.462    -125.525     351.696
  H     -209.443    -126.171     351.557
  H     -213.832    -125.509     346.163
  H     -209.856    -127.824     353.276
  H     -213.921    -126.465     347.603
  H     -211.694    -126.158     354.675
  H     -209.866    -124.951     355.598
  H     -209.214    -126.576     355.246
  P     -211.947    -129.300     353.793
  C     -213.287    -130.724     352.078
  O     -213.265    -130.112     353.364
  O     -212.272    -128.828     355.292
  O     -210.667    -130.074     353.735
  H     -211.481    -128.934     355.845
  H     -214.222    -131.224     351.937
  H     -212.489    -131.433     352.007
  H     -213.166    -129.974     351.324

 6  7  8  9  10  11  12  13  14  15  26  29  33  34 0
 6-311+G(2d,p)
 ****
 36  38  39  40  41 0
 6-311+G(2d,p)
 ****
 1  2  3  4  5  16  17  18  19  20  21  22  23  24  25 0
 3-21G
 ****
 27  28  30  31  32  35  37  42  43  44  45  46  47 0
 3-21G
 ****
 48  49 0
 3-21G
 ****


