%nproc=1
%NoSave
%Mem=1900MB
#P OB98/GEN NMR

erre ene a

0 1
  C      186.968    -213.838    -218.642
  O      187.385    -213.707    -217.296
  H      186.391    -212.951    -218.915
  H      186.334    -214.721    -218.770
  H      187.840    -213.907    -219.296
  P      188.008    -214.996    -216.569
  C      185.981    -216.090    -215.402
  O      187.102    -215.224    -215.258
  C      185.031    -215.974    -214.210
  O      185.699    -216.350    -212.986
  C      184.521    -214.563    -213.958
  O      183.671    -214.052    -214.956
  C      184.011    -214.667    -212.528
  O      182.696    -215.217    -212.458
  C      185.034    -215.655    -211.907
  N      185.984    -214.989    -211.030
  C      185.495    -214.585    -209.791
  O      184.323    -214.747    -209.439
  N      186.389    -213.951    -208.971
  C      187.683    -213.647    -209.283
  O      188.430    -213.057    -208.506
  C      188.136    -214.065    -210.620
  C      187.280    -214.703    -211.419
  O      189.480    -214.937    -216.289
  O      187.578    -216.213    -217.515
  H      182.719    -216.070    -212.936
  H      188.104    -217.026    -217.309
  H      186.057    -213.666    -208.061
  H      189.152    -213.830    -210.900
  H      187.592    -215.027    -212.408
  H      184.508    -216.421    -211.320
  H      183.980    -213.698    -212.025
  H      185.389    -213.887    -213.926
  H      184.202    -216.676    -214.366
  H      186.357    -217.117    -215.465
  H      185.450    -215.851    -216.333
  P      183.925    -212.677    -215.722
  C      182.586    -210.977    -214.253
  O      182.670    -211.713    -215.470
  O      184.475    -212.771    -217.110
  O      185.064    -211.995    -214.797
  H      185.650    -211.484    -215.389
  H      181.691    -210.390    -214.252
  H      183.436    -210.332    -214.167
  H      182.568    -211.656    -213.426

 6  7  8  9  10  11  12  13  14  15  16  26  31  32  33  34  35 0
 6-311+G(2d,p)
 ****
 36  37 0
 6-311+G(2d,p)
 ****
 1  2  3  4  5  17  18  19  20  21  22  23  24  25 0
 3-21G
 ****
 27  28  29  30  38  39  40  41  42  43  44  45 0
 3-21G
 ****


