%nproc=1
%NoSave
%Mem=1900MB
#P OB98/GEN NMR

erre ene a

0 1
  C     -237.512     749.468    -455.797
  O     -237.069     750.479    -454.920
  H     -236.645     748.885    -456.122
  H     -237.976     749.909    -456.683
  H     -238.215     748.801    -455.301
  P     -238.131     751.526    -454.324
  C     -237.759     751.400    -451.786
  O     -237.449     752.108    -452.984
  C     -236.505     751.186    -450.928
  O     -235.705     750.107    -451.493
  C     -235.601     752.426    -450.844
  O     -235.212     752.655    -449.486
  C     -234.373     752.043    -451.668
  O     -233.198     752.769    -451.296
  C     -234.330     750.529    -451.410
  N     -233.486     749.835    -452.375
  C     -232.110     749.833    -452.103
  O     -231.678     750.401    -451.086
  N     -231.253     749.258    -452.993
  C     -231.712     748.766    -454.109
  N     -230.808     748.232    -454.969
  C     -233.157     748.761    -454.452
  C     -233.969     749.310    -453.551
  O     -239.509     750.977    -454.145
  O     -238.080     752.787    -455.314
  H     -232.450     752.451    -451.859
  H     -238.916     753.290    -455.232
  H     -233.489     748.345    -455.377
  H     -235.041     749.361    -453.713
  H     -233.972     750.317    -450.402
  H     -234.569     752.245    -452.724
  H     -236.072     753.331    -451.240
  H     -236.814     750.851    -449.934
  H     -229.835     748.256    -454.693
  H     -238.203     750.430    -452.052
  H     -231.051     747.835    -455.867
  H     -238.487     751.990    -451.215
  P     -235.442     754.142    -448.926
  C     -236.289     753.569    -446.526
  O     -235.239     754.105    -447.327
  O     -237.014     754.374    -449.108
  O     -234.641     755.176    -449.649
  H     -237.167     755.028    -449.807
  H     -236.008     753.612    -445.494
  H     -236.466     752.551    -446.805
  H     -237.181     754.141    -446.677

 6  7  8  9  10  11  12  13  14  15  16  26  30  31  32  33  35 0
 6-311+G(2d,p)
 ****
 37  38 0
 6-311+G(2d,p)
 ****
 1  2  3  4  5  17  18  19  20  21  22  23  24  25 0
 3-21G
 ****
 27  28  29  34  36  39  40  41  42  43  44  45  46 0
 3-21G
 ****


