%nproc=1
%NoSave
%Mem=1900MB
#P OB98/GEN NMR

erre ene a

0 1
  C       24.543    -103.930     177.299
  O       24.736    -104.570     178.552
  P       23.485    -105.339     179.199
  C       22.868    -103.428     180.831
  O       22.468    -104.204     179.710
  C       21.692    -102.637     181.394
  O       22.140    -101.892     182.558
  C       21.081    -101.629     180.407
  O       19.649    -101.697     180.488
  C       21.510    -100.283     180.965
  O       20.619     -99.239     180.584
  C       21.522    -100.593     182.460
  N       21.511     -95.823     184.126
  C       20.505     -96.548     183.521
  N       19.352     -95.888     183.273
  N       20.616     -97.807     183.182
  C       21.813     -98.346     183.519
  C       22.885     -97.736     184.128
  C       22.767     -96.327     184.442
  O       23.654     -95.607     184.896
  N       23.919     -98.615     184.320
  C       23.478     -99.756     183.824
  N       22.223     -99.633     183.282
  O       24.096    -105.938     180.550
  O       22.889    -106.409     178.351
  H       19.802     -99.357     181.104
  H       23.964    -106.907     180.570
  H       21.379     -94.853     184.349
  H       24.040    -100.682     183.807
  H       20.496    -100.674     182.845
  H       22.512    -100.042     180.593
  H       19.187     -94.930     183.539
  H       21.398    -101.767     179.368
  H       18.595     -96.408     182.849
  H       20.930    -103.346     181.742
  H       23.656    -102.731     180.522
  H       23.272    -104.097     181.598
  P       18.867    -101.781     179.087
  C       17.557     -99.565     179.494
  O       18.498    -100.270     178.706
  O       17.461    -102.430     179.485
  O       19.585    -102.565     178.039
  H       17.061    -102.878     178.715
  H       17.296    -100.109     180.408
  H       16.648     -99.404     178.906
  H       17.978     -98.594     179.768
  H       25.455    -103.462     176.993
  H       23.776    -103.190     177.391
  H       24.252    -104.656     176.569

 3  4  5  6  7  8  9  10  11  12  23  26  30  31  33  0
 6-311+G(2d,p)
 ****
 35  36  37  38 0
 6-311+G(2d,p)
 ****
 1  2  13  14  15  16  17  18  19  20  21  22  24  25  27  28  29 0
 3-21G
 ****
 32  34  39  40  41  42  43  44  45  46  47  48  49 0
 3-21G
 ****


