%nproc=1
%NoSave
%Mem=1900MB
#P OB98/GEN NMR

erre ene a

0 1
  C       51.753      27.987     -46.927
  O       52.762      28.605     -46.153
  H       50.850      27.898     -46.317
  H       52.066      26.986     -47.236
  H       51.522      28.593     -47.807
  P       54.207      28.813     -46.809
  C       55.081      30.426     -48.627
  O       53.973      29.680     -48.138
  C       55.145      30.341     -50.150
  O       55.454      28.997     -50.566
  C       53.845      30.722     -50.856
  O       53.727      32.130     -50.961
  C       54.054      30.052     -52.203
  O       54.964      30.837     -52.999
  C       54.724      28.726     -51.795
  N       53.796      23.817     -52.684
  C       54.775      24.641     -53.204
  N       55.605      24.086     -54.112
  N       54.919      25.898     -52.872
  C       53.975      26.335     -52.008
  C       52.946      25.621     -51.438
  C       52.839      24.213     -51.762
  O       52.000      23.441     -51.304
  N       52.133      26.425     -50.682
  C       52.700      27.614     -50.752
  N       53.819      27.615     -51.554
  O       55.015      27.571     -47.029
  O       54.941      29.842     -45.828
  H       54.967      30.452     -53.894
  H       55.454      29.372     -45.145
  H       53.729      22.858     -52.982
  H       52.349      28.503     -50.243
  H       55.451      28.385     -52.541
  H       53.131      29.951     -52.776
  H       55.453      23.174     -54.517
  H       52.976      30.271     -50.366
  H       56.292      24.690     -54.547
  H       55.974      30.979     -50.486
  H       55.986      30.001     -48.183
  H       55.000      31.474     -48.322
  P       52.294      32.846     -51.094
  C       50.298      33.083     -49.465
  O       51.450      32.341     -49.827
  O       51.619      32.656     -52.408
  O       52.578      34.371     -50.717
  H       52.891      34.907     -51.488
  H       49.839      32.634     -48.609
  H       49.605      33.087     -50.281
  H       50.580      34.089     -49.232

 6  7  8  9  10  11  12  13  14  15  26  29  33  34 0
 6-311+G(2d,p)
 ****
 36  38  39  40  41 0
 6-311+G(2d,p)
 ****
 1  2  3  4  5  16  17  18  19  20  21  22  23  24  25 0
 3-21G
 ****
 27  28  30  31  32  35  37  42  43  44  45  46  47 0
 3-21G
 ****
 48  49 0
 3-21G
 ****


