%nproc=1
%NoSave
%Mem=1900MB
#P OB98/GEN NMR

erre ene a

0 1
  C     -264.267      -8.147    -129.233
  O     -263.551      -8.408    -128.041
  H     -265.197      -8.721    -129.247
  H     -264.509      -7.082    -129.270
  H     -263.657      -8.402    -130.105
  P     -263.073      -9.921    -127.809
  C     -265.112     -10.590    -126.349
  O     -263.707     -10.382    -126.408
  C     -265.442     -11.633    -125.288
  O     -266.852     -11.931    -125.309
  C     -264.736     -12.973    -125.466
  O     -263.399     -12.933    -124.990
  C     -265.607     -13.871    -124.604
  O     -265.267     -13.694    -123.215
  C     -267.013     -13.310    -124.874
  N     -270.772     -16.670    -125.753
  C     -270.338     -16.076    -124.619
  N     -269.344     -15.175    -124.468
  C     -268.787     -14.883    -125.654
  C     -269.135     -15.387    -126.897
  C     -270.175     -16.329    -126.924
  N     -270.566     -16.980    -128.084
  N     -268.323     -14.860    -127.883
  C     -267.491     -14.067    -127.242
  N     -267.736     -14.042    -125.896
  O     -261.511      -9.753    -127.483
  O     -263.301     -10.844    -128.959
  H     -265.330     -12.740    -123.031
  H     -260.996      -9.913    -128.296
  H     -270.855     -16.367    -123.710
  H     -266.695     -13.500    -127.707
  H     -267.635     -13.295    -123.971
  H     -265.490     -14.934    -124.834
  H     -264.785     -13.319    -126.507
  H     -265.213     -11.201    -124.306
  H     -265.470     -10.939    -127.324
  H     -270.946     -17.908    -127.919
  H     -269.917     -16.885    -128.857
  H     -265.598      -9.639    -126.111
  P     -262.228     -13.318    -126.016
  C     -262.765     -15.848    -126.086
  O     -261.834     -14.844    -125.706
  O     -260.980     -12.483    -125.464
  O     -262.504     -12.998    -127.447
  H     -260.625     -11.911    -126.175
  H     -262.379     -16.811    -125.823
  H     -262.925     -15.805    -127.143
  H     -263.693     -15.685    -125.578

 6  7  8  9  10  11  12  13  14  15  25  28  32  33  34  35 0
 6-311+G(2d,p)
 ****
 36  39  40 0
 6-311+G(2d,p)
 ****
 1  2  3  4  5  16  17  18  19  20  21  22  23  24 0
 3-21G
 ****
 26  27  29  30  31  37  38  41  42  43  44  45  46  47  48 0
 3-21G
 ****


