%nproc=1
%NoSave
%Mem=1900MB
#P OB98/GEN NMR

erre ene a

0 1
  C      210.920     200.804      27.037
  O      210.641     201.654      25.912
  P      209.362     201.464      24.957
  C      210.898     200.423      23.150
  O      209.699     200.296      23.908
  C      211.138     199.173      22.291
  O      211.290     198.006      23.130
  C      209.996     198.810      21.347
  O      209.911     199.684      20.237
  C      210.361     197.367      20.992
  O      211.305     197.314      19.915
  C      211.011     196.856      22.288
  N      210.188     195.886      23.002
  C      210.101     194.611      22.435
  O      210.638     194.371      21.356
  N      209.404     193.639      23.110
  C      208.749     193.952      24.192
  N      208.079     192.949      24.827
  C      208.703     195.316      24.746
  C      209.436     196.227      24.104
  O      208.896     202.733      24.319
  O      208.226     200.828      25.894
  H      207.347     201.065      25.539
  H      211.752     196.443      19.975
  H      208.107     195.540      25.623
  H      209.466     197.254      24.450
  H      211.991     196.418      22.079
  H      209.484     196.785      20.672
  H      209.053     198.821      21.906
  H      212.068     199.325      21.724
  H      208.144     192.016      24.429
  H      211.739     200.538      23.848
  H      207.558     193.073      25.688
  H      210.846     201.321      22.528
  P      208.655     200.678      20.184
  C      207.129     199.462      18.466
  O      207.365     199.804      19.815
  O      208.921     201.542      18.855
  O      208.506     201.550      21.380
  H      208.653     202.472      19.015
  H      206.559     198.529      18.426
  H      208.066     199.323      17.912
  H      206.545     200.251      17.989
  H      211.821     201.128      27.514
  H      211.037     199.795      26.701
  H      210.109     200.856      27.733

 3  4  5  6  7  8  9  10  11  12  13  24  27  28  29  30  32 0
 6-311+G(2d,p)
 ****
 34  35 0
 6-311+G(2d,p)
 ****
 1  2  14  15  16  17  18  19  20  21  22  23  25  26 0
 3-21G
 ****
 31  33  36  37  38  39  40  41  42  43  44  45  46 0
 3-21G
 ****


