%nproc=1
%NoSave
%Mem=1900MB
#P OB98/GEN NMR

erre ene a

0 1
  C      136.501    -353.461      94.594
  O      136.172    -354.737      94.061
  P      136.201    -354.997      92.486
  C      134.386    -356.879      92.715
  O      134.833    -355.709      92.067
  C      133.157    -357.419      91.967
  O      132.019    -356.566      92.195
  C      133.400    -357.487      90.459
  O      133.841    -358.780      90.081
  C      132.044    -357.120      89.886
  O      131.176    -358.266      89.880
  C      131.548    -356.071      90.909
  N      132.012    -354.680      90.761
  C      131.355    -353.823      89.880
  O      130.373    -354.146      89.219
  N      131.896    -352.562      89.758
  C      132.967    -352.084      90.455
  O      133.580    -351.058      90.168
  C      133.436    -352.932      91.553
  C      132.964    -354.177      91.641
  O      137.287    -356.158      92.327
  O      136.531    -353.806      91.641
  H      131.672    -358.995      89.462
  H      138.149    -355.791      92.065
  H      131.511    -351.984      89.017
  H      134.194    -352.535      92.224
  H      133.323    -354.837      92.425
  H      130.454    -356.041      90.942
  H      132.128    -356.795      88.850
  H      134.131    -356.719      90.163
  H      132.911    -358.416      92.360
  H      134.130    -356.660      93.754
  H      135.180    -357.631      92.725
  P      135.268    -358.956      89.377
  C      134.215    -361.006      88.249
  O      134.981    -359.832      88.061
  O      136.368    -359.457      90.256
  O      135.580    -357.489      88.816
  H      136.169    -357.011      89.436
  H      133.941    -361.404      87.269
  H      133.306    -360.785      88.808
  H      134.811    -361.753      88.782
  H      136.423    -353.489      95.661
  H      135.825    -352.728      94.206
  H      137.502    -353.206      94.316

 3  4  5  6  7  8  9  10  11  12  13  23  28  29  30  31  32 0
 6-311+G(2d,p)
 ****
 33  34 0
 6-311+G(2d,p)
 ****
 1  2  14  15  16  17  18  19  20  21  22  24  25  26  27 0
 3-21G
 ****
 35  36  37  38  39  40  41  42  43  44  45 0
 3-21G
 ****


