%nproc=1
%NoSave
%Mem=1900MB
#P OB98/GEN NMR

erre ene a

0 1
  C     -571.658    -231.097    -411.144
  O     -572.033    -230.321    -410.020
  P     -570.992    -230.233    -408.802
  C     -569.670    -228.211    -409.768
  O     -570.518    -228.706    -408.734
  C     -569.965    -226.737    -410.046
  O     -571.298    -226.597    -410.590
  C     -569.927    -225.859    -408.812
  O     -568.592    -225.574    -408.446
  C     -570.710    -224.638    -409.286
  O     -569.852    -223.706    -409.963
  C     -571.736    -225.255    -410.265
  N     -573.094    -225.254    -409.740
  C     -573.675    -223.996    -409.567
  O     -573.042    -222.970    -409.842
  N     -574.948    -223.919    -409.055
  C     -575.575    -225.009    -408.732
  N     -576.833    -224.884    -408.230
  C     -574.982    -226.359    -408.876
  C     -573.749    -226.408    -409.375
  O     -569.702    -230.994    -409.367
  O     -571.476    -230.819    -407.519
  H     -570.446    -223.129    -410.486
  H     -569.171    -231.373    -408.644
  H     -575.550    -227.235    -408.595
  H     -573.240    -227.353    -409.513
  H     -571.739    -224.701    -411.213
  H     -571.174    -224.099    -408.459
  H     -570.458    -226.333    -407.979
  H     -569.250    -226.378    -410.798
  H     -577.206    -223.948    -408.139
  H     -569.845    -228.784    -410.689
  H     -577.416    -225.670    -407.973
  H     -568.627    -228.346    -409.468
  P     -568.303    -225.233    -406.906
  C     -567.580    -227.590    -406.201
  O     -567.159    -226.262    -406.459
  O     -569.594    -225.831    -406.176
  O     -568.068    -223.796    -406.562
  H     -569.586    -225.595    -405.228
  H     -566.693    -228.222    -406.070
  H     -568.159    -227.983    -407.042
  H     -568.175    -227.620    -405.286
  H     -572.440    -231.068    -411.874
  H     -571.492    -232.109    -410.839
  H     -570.759    -230.700    -411.568

 3  4  5  6  7  8  9  10  11  12  13  21  23  27  28  29  30  32 0
 6-311+G(2d,p)
 ****
 34  35 0
 6-311+G(2d,p)
 ****
 1  2  14  15  16  17  18  19  20  22  24  25  26 0
 3-21G
 ****
 31  33  36  37  38  39  40  41  42  43  44  45  46 0
 3-21G
 ****


