%nproc=1
%NoSave
%Mem=1900MB
#P OB98/GEN NMR

erre ene a

0 1
  C      -63.683    -148.244    -159.088
  O      -62.718    -149.208    -158.694
  P      -62.982    -150.013    -157.330
  C      -63.907    -149.258    -155.014
  O      -63.169    -148.909    -156.181
  C      -63.265    -148.639    -153.780
  O      -62.010    -149.284    -153.474
  C      -62.927    -147.160    -153.927
  O      -64.056    -146.325    -153.716
  C      -61.917    -146.978    -152.804
  O      -62.601    -146.836    -151.545
  C      -61.147    -148.304    -152.849
  N      -56.249    -147.047    -152.574
  C      -57.180    -147.210    -151.564
  N      -56.757    -146.939    -150.309
  N      -58.409    -147.604    -151.767
  C      -58.693    -147.828    -153.073
  C      -57.860    -147.705    -154.160
  C      -56.503    -147.257    -153.924
  O      -55.650    -147.046    -154.780
  N      -58.503    -148.030    -155.324
  C      -59.724    -148.350    -154.945
  N      -59.904    -148.203    -153.595
  O      -61.552    -150.650    -156.996
  O      -64.050    -151.049    -157.413
  H      -63.110    -147.661    -151.407
  H      -61.651    -151.376    -156.346
  H      -55.316    -146.735    -152.369
  H      -60.515    -148.679    -155.614
  H      -60.910    -148.672    -151.844
  H      -61.297    -146.086    -152.933
  H      -55.841    -146.571    -150.098
  H      -62.443    -146.956    -154.891
  H      -57.432    -146.985    -149.559
  H      -63.942    -148.798    -152.931
  H      -63.924    -150.346    -154.914
  H      -64.939    -148.908    -155.124
  P      -64.157    -145.005    -154.626
  C      -62.705    -142.861    -154.840
  O      -62.962    -144.059    -154.132
  O      -65.476    -144.288    -154.070
  O      -64.230    -145.268    -156.093
  H      -65.875    -143.727    -154.764
  H      -62.059    -142.224    -154.230
  H      -63.629    -142.319    -155.052
  H      -62.188    -143.087    -155.776
  H      -63.379    -147.790    -160.008
  H      -63.767    -147.493    -158.330
  H      -64.631    -148.722    -159.223

 3  4  5  6  7  8  9  10  11  12  23  26  30  31 0
 6-311+G(2d,p)
 ****
 33  35  36  37  38 0
 6-311+G(2d,p)
 ****
 1  2  13  14  15  16  17  18  19  20  21  22  24  25 0
 3-21G
 ****
 27  28  29  32  34  39  40  41  42  43  44  45  46  47  48  49 0
 3-21G
 ****


