%nproc=1
%NoSave
%Mem=1900MB
#P OB98/GEN NMR

erre ene a

0 1
  C       34.272     214.987    -222.415
  O       33.926     216.278    -221.958
  H       33.524     214.274    -222.058
  H       35.251     214.698    -222.018
  H       34.291     214.960    -223.509
  P       34.880     217.484    -222.411
  C       36.507     217.235    -220.395
  O       36.334     217.161    -221.808
  C       37.950     217.616    -220.076
  O       38.824     216.511    -220.399
  C       38.476     218.804    -220.877
  O       38.030     220.042    -220.348
  C       39.982     218.599    -220.756
  O       40.491     219.130    -219.525
  C       40.110     217.066    -220.755
  N       43.891     214.703    -223.227
  C       43.722     215.023    -221.925
  N       42.673     215.640    -221.341
  C       41.724     215.919    -222.254
  C       41.758     215.660    -223.615
  C       42.903     215.016    -224.104
  N       43.092     214.727    -225.432
  N       40.616     216.140    -224.225
  C       39.905     216.673    -223.251
  N       40.533     216.558    -222.044
  O       34.361     218.708    -221.515
  O       34.852     217.805    -223.870
  H       40.462     220.101    -219.609
  H       33.713     219.233    -222.023
  H       44.546     214.751    -221.261
  H       38.936     217.154    -223.372
  H       40.832     216.713    -220.011
  H       40.517     219.091    -221.569
  H       38.189     218.709    -221.932
  H       38.028     217.810    -218.997
  H       36.284     216.258    -219.951
  H       35.813     217.978    -219.992
  H       43.950     214.279    -225.717
  H       42.412     215.051    -226.109
  P       37.456     221.142    -221.355
  C       39.904     221.867    -221.862
  O       38.632     221.520    -222.384
  O       37.321     222.451    -220.439
  O       36.161     220.779    -222.004
  H       36.392     222.568    -220.158
  H       40.572     222.090    -222.668
  H       40.292     221.048    -221.294
  H       39.808     222.725    -221.230

 6  7  8  9  10  11  12  13  14  15  25  28  32  33  34  35 0
 6-311+G(2d,p)
 ****
 36  37  40 0
 6-311+G(2d,p)
 ****
 1  2  3  4  5  16  17  18  19  20  21  22  23  24 0
 3-21G
 ****
 26  27  29  30  31  38  39 41  42  43  44  45  46  47  48 0
 3-21G
 ****


