%nproc=1
%NoSave
%Mem=1900MB
#P OB98/GEN NMR

erre ene a

0 1
  C     -825.169    -399.988     319.628
  O     -825.420    -400.758     318.460
  H     -824.209    -399.480     319.509
  H     -825.114    -400.640     320.507
  H     -825.951    -399.241     319.770
  P     -826.778    -401.607     318.395
  C     -825.939    -403.112     316.463
  O     -826.369    -403.052     317.818
  C     -825.531    -404.535     316.102
  O     -824.309    -404.890     316.769
  C     -826.567    -405.590     316.485
  O     -827.596    -405.646     315.510
  C     -825.683    -406.833     316.504
  O     -825.434    -407.271     315.151
  C     -824.399    -406.297     317.151
  N     -823.087    -409.188     321.099
  C     -823.033    -409.457     319.745
  N     -822.609    -410.695     319.388
  N     -823.386    -408.606     318.817
  C     -823.852    -407.434     319.317
  C     -823.970    -407.062     320.643
  C     -823.527    -408.003     321.657
  O     -823.547    -407.796     322.868
  N     -824.556    -405.821     320.769
  C     -824.754    -405.438     319.520
  N     -824.364    -406.385     318.604
  O     -827.923    -400.975     317.668
  O     -827.126    -401.908     319.934
  H     -824.885    -408.074     315.214
  H     -827.726    -401.223     320.297
  H     -822.813    -409.896     321.764
  H     -825.174    -404.482     319.222
  H     -823.507    -406.798     316.768
  H     -826.143    -407.669     317.032
  H     -822.598    -411.463     320.050
  H     -826.958    -405.426     317.494
  H     -822.607    -410.926     318.409
  H     -825.323    -404.560     315.021
  H     -825.091    -402.419     316.360
  H     -826.753    -402.781     315.798
  P     -829.098    -405.213     315.880
  C     -829.719    -406.510     313.725
  O     -830.037    -406.253     315.083
  O     -829.416    -403.771     315.635
  O     -829.296    -405.662     317.404
  H     -829.012    -404.973     318.048
  H     -830.418    -407.213     313.322
  H     -828.730    -406.913     313.660
  H     -829.769    -405.598     313.168

 6  7  8  9  10  11  12  13  14  15  26  29  33  34 0
 6-311+G(2d,p)
 ****
 36  38  39  40  41 0
 6-311+G(2d,p)
 ****
 1  2  3  4  5  16  17  18  19  20  21  22  23  24  25 0
 3-21G
 ****
 27  28  30  31  32  35  37  42  43  44  45  46  47 0
 3-21G
 ****
 48  49 0
 3-21G
 ****


