%nproc=1
%NoSave
%Mem=1900MB
#P OB98/GEN NMR

erre ene a

0 1
  C     -379.502    -176.334    -247.650
  O     -380.126    -175.109    -247.959
  P     -381.673    -174.872    -247.611
  C     -381.193    -173.093    -245.814
  O     -381.721    -174.389    -246.081
  C     -382.330    -172.107    -245.554
  O     -382.986    -172.389    -244.291
  C     -381.879    -170.661    -245.427
  O     -381.347    -170.043    -246.578
  C     -383.108    -170.021    -244.803
  O     -384.101    -169.733    -245.785
  C     -383.595    -171.147    -243.855
  N     -383.289    -170.853    -242.457
  C     -383.963    -169.774    -241.901
  O     -384.773    -169.085    -242.517
  N     -383.653    -169.482    -240.600
  C     -382.720    -170.121    -239.836
  O     -382.459    -169.775    -238.689
  C     -382.028    -171.243    -240.484
  C     -382.336    -171.557    -241.745
  O     -382.578    -176.014    -247.930
  O     -382.026    -173.524    -248.402
  H     -384.877    -169.366    -245.320
  H     -381.496    -172.749    -248.141
  H     -384.120    -168.694    -240.180
  H     -381.291    -171.779    -239.900
  H     -381.838    -172.380    -242.244
  H     -384.679    -171.280    -243.947
  H     -382.866    -169.077    -244.303
  H     -381.079    -170.617    -244.675
  H     -383.078    -172.232    -246.340
  H     -380.622    -172.758    -246.683
  H     -380.508    -173.147    -244.961
  P     -380.114    -169.021    -246.539
  C     -378.492    -170.676    -247.698
  O     -378.755    -169.867    -246.573
  O     -380.203    -167.901    -245.557
  O     -380.157    -168.412    -248.026
  H     -379.834    -167.492    -248.001
  H     -377.552    -171.211    -247.533
  H     -378.388    -170.059    -248.597
  H     -379.291    -171.410    -247.839
  H     -378.477    -176.300    -247.957
  H     -380.002    -177.128    -248.164
  H     -379.553    -176.504    -246.595

 3  4  5  6  7  8  9  10  11  12  13  23  28  29  30  31  32 0
 6-311+G(2d,p)
 ****
 33  34 0
 6-311+G(2d,p)
 ****
 1  2  14  15  16  17  18  19  20  21  22  24  25  26  27 0
 3-21G
 ****
 35  36  37  38  39  40  41  42  43  44  45 0
 3-21G
 ****


