%nproc=1
%NoSave
%Mem=1900MB
#P OB98/GEN NMR

erre ene a

0 1
  C      -58.135     592.340    -349.969
  O      -59.294     591.739    -350.515
  H      -57.466     592.670    -350.771
  H      -58.438     593.212    -349.381
  H      -57.614     591.636    -349.313
  P      -59.065     590.415    -351.395
  C      -60.187     591.495    -353.472
  O      -59.017     590.896    -352.925
  C      -60.904     590.498    -354.385
  O      -62.122     591.086    -354.894
  C      -60.106     590.073    -355.613
  O      -59.152     589.068    -355.299
  C      -61.219     589.521    -356.497
  O      -61.573     588.195    -356.061
  C      -62.376     590.496    -356.202
  N      -64.343     591.832    -360.734
  C      -64.470     590.714    -359.990
  N      -63.930     590.437    -358.783
  C      -63.205     591.481    -358.342
  C      -63.005     592.694    -358.976
  C      -63.603     592.856    -360.237
  N      -63.408     593.986    -361.023
  N      -62.183     593.513    -358.215
  C      -61.888     592.794    -357.156
  N      -62.484     591.561    -357.178
  O      -60.476     589.660    -351.270
  O      -57.933     589.545    -350.954
  H      -61.751     588.256    -355.102
  H      -60.416     588.979    -350.573
  H      -65.080     589.924    -360.425
  H      -61.244     593.120    -356.345
  H      -63.342     589.986    -356.145
  H      -60.938     589.455    -357.553
  H      -59.643     590.928    -356.115
  H      -61.187     589.625    -353.777
  H      -59.907     592.376    -354.052
  H      -63.475     593.803    -362.020
  H      -62.647     594.580    -360.714
  H      -60.844     591.794    -352.654
  P      -57.601     589.402    -355.555
  C      -57.389     587.494    -357.292
  O      -57.264     588.890    -357.046
  O      -56.849     588.352    -354.614
  O      -57.192     590.803    -355.244
  H      -56.252     588.828    -353.999
  H      -57.139     587.288    -358.312
  H      -58.397     587.187    -357.103
  H      -56.726     586.957    -356.646

 6  7  8  9  10  11  12  13  14  15  25  28  32  33  34  35 0
 6-311+G(2d,p)
 ****
 36  39  40 0
 6-311+G(2d,p)
 ****
 1  2  3  4  5  16  17  18  19  20  21  22  23  24 0
 3-21G
 ****
 26  27  29  30  31  37  38  41  42  43  44  45  46  47  48 0
 3-21G
 ****


