%nproc=1
%NoSave
%Mem=1900MB
#P OB98/GEN NMR

erre ene a

0 1
  C     1184.606     708.501    -475.442
  O     1185.068     709.473    -474.518
  P     1184.690     711.021    -474.666
  C     1185.243     712.875    -476.369
  O     1185.551     711.560    -475.900
  C     1186.027     713.211    -477.644
  O     1187.406     713.570    -477.272
  C     1186.101     712.081    -478.682
  O     1186.112     712.734    -479.954
  C     1187.448     711.467    -478.374
  O     1187.946     710.683    -479.486
  C     1188.284     712.693    -478.028
  N     1189.485     712.347    -477.277
  C     1190.690     712.345    -477.986
  O     1190.697     712.549    -479.200
  N     1191.865     712.056    -477.317
  C     1191.800     711.713    -476.075
  N     1192.990     711.463    -475.447
  C     1190.553     711.593    -475.316
  C     1189.430     711.938    -475.961
  O     1184.797     711.816    -473.408
  O     1183.210     710.991    -475.271
  H     1188.826     710.351    -479.260
  H     1182.544     710.778    -474.570
  H     1190.554     711.255    -474.274
  H     1188.456     711.888    -475.497
  H     1188.580     713.252    -478.938
  H     1187.363     710.791    -477.521
  H     1185.264     711.388    -478.611
  H     1185.581     714.117    -478.092
  H     1193.837     711.571    -476.019
  H     1185.498     713.591    -475.591
  H     1193.076     711.256    -474.452
  H     1184.156     712.955    -476.543
  P     1185.383     712.065    -481.233
  C     1186.203     710.945    -483.377
  O     1186.517     711.257    -482.032
  O     1184.578     713.011    -482.061
  O     1184.473     710.885    -480.599
  H     1183.816     710.601    -481.267
  H     1187.145     710.634    -483.893
  H     1185.772     711.788    -483.900
  H     1185.494     710.092    -483.429
  H     1184.973     707.537    -475.159
  H     1184.960     708.744    -476.422
  H     1183.536     708.489    -475.442

 3  4  5  6  7  8  9  10  11  12  13  23  27  28  29  30  32 0
 6-311+G(2d,p)
 ****
 34  35 0
 6-311+G(2d,p)
 ****
 1  2  14  15  16  17  18  19  20  21  22  24  25  26 0
 3-21G
 ****
 31  33  36  37  38  39  40  41  42  43  44  45  46 0
 3-21G
 ****


