%nproc=1
%NoSave
%Mem=1900MB
#P OB98/GEN NMR

erre ene a

0 1
  C     -131.912    -241.991      20.570
  O     -133.131    -241.850      19.863
  P     -133.663    -243.044      18.939
  C     -134.639    -244.967      20.396
  O     -133.503    -244.397      19.782
  C     -134.428    -246.462      20.671
  O     -135.479    -246.900      21.565
  C     -134.524    -247.359      19.442
  O     -133.912    -248.614      19.747
  C     -136.020    -247.542      19.308
  O     -136.355    -248.686      18.527
  C     -136.485    -247.588      20.785
  N     -137.799    -246.943      20.958
  C     -138.908    -247.780      21.017
  O     -138.823    -249.007      21.006
  N     -140.128    -247.158      21.001
  C     -140.326    -245.814      20.886
  O     -141.394    -245.306      20.567
  C     -139.129    -244.979      21.072
  C     -137.933    -245.572      21.073
  O     -132.528    -243.156      17.816
  O     -135.012    -242.825      18.344
  H     -137.338    -248.734      18.500
  H     -132.792    -242.661      17.019
  H     -140.930    -247.768      20.896
  H     -139.261    -243.907      21.138
  H     -137.028    -244.976      21.155
  H     -136.566    -248.620      21.148
  H     -136.445    -246.665      18.806
  H     -134.083    -246.932      18.538
  H     -133.467    -246.605      21.181
  H     -135.510    -244.812      19.754
  H     -134.855    -244.457      21.341
  P     -133.418    -249.525      18.522
  C     -131.284    -248.099      18.456
  O     -132.352    -248.646      17.709
  O     -134.493    -250.154      17.701
  O     -132.496    -250.624      19.239
  H     -132.385    -251.392      18.652
  H     -130.413    -247.998      17.803
  H     -131.021    -248.735      19.305
  H     -131.572    -247.109      18.821
  H     -131.719    -241.100      21.130
  H     -131.114    -242.156      19.876
  H     -131.982    -242.824      21.238

 3  4  5  6  7  8  9  10  11  12  13  23  28  29  30  31  32 0
 6-311+G(2d,p)
 ****
 33  34 0
 6-311+G(2d,p)
 ****
 1  2  14  15  16  17  18  19  20  21  22  24  25  26  27 0
 3-21G
 ****
 35  36  37  38  39  40  41  42  43  44  45 0
 3-21G
 ****


