%nproc=1
%NoSave
%Mem=1900MB
#P OB98/GEN NMR

erre ene a

0 1
  C       51.156     166.082     -42.035
  O       52.152     165.211     -42.552
  P       51.883     164.535     -43.984
  C       50.419     162.525     -44.769
  O       51.114     163.154     -43.698
  C       50.092     161.082     -44.410
  O       51.292     160.342     -44.103
  C       49.206     160.930     -43.179
  O       47.830     161.131     -43.477
  C       49.460     159.474     -42.814
  O       48.673     158.610     -43.655
  C       50.953     159.320     -43.135
  N       55.591     158.553     -41.248
  C       55.139     158.462     -42.551
  N       56.038     158.047     -43.472
  N       53.917     158.752     -42.919
  C       53.125     159.142     -41.891
  C       53.458     159.274     -40.560
  C       54.810     158.939     -40.164
  O       55.254     158.951     -39.020
  N       52.390     159.704     -39.819
  C       51.412     159.834     -40.694
  N       51.795     159.464     -41.957
  O       53.339     164.055     -44.444
  O       51.246     165.433     -44.989
  H       47.753     158.658     -43.323
  H       53.345     163.877     -45.406
  H       56.539     158.313     -41.013
  H       50.409     160.177     -40.457
  H       51.174     158.349     -43.593
  H       49.192     159.244     -41.778
  H       56.976     157.748     -43.239
  H       49.546     161.578     -42.359
  H       55.719     157.907     -44.420
  H       49.621     160.614     -45.285
  H       51.045     162.550     -45.665
  H       49.501     163.086     -44.978
  P       46.998     162.049     -42.451
  C       46.322     161.799     -39.953
  O       46.979     161.231     -41.072
  O       45.499     161.924     -42.999
  O       47.457     163.465     -42.373
  H       44.979     162.713     -42.747
  H       46.173     161.018     -39.200
  H       45.348     162.207     -40.230
  H       46.943     162.588     -39.521
  H       51.468     166.455     -41.082
  H       50.236     165.546     -41.924
  H       51.013     166.900     -42.709

 3  4  5  6  7  8  9  10  11  12  23  26  30  31 0
 6-311+G(2d,p)
 ****
 33  35  36  37  38 0
 6-311+G(2d,p)
 ****
 1  2  13  14  15  16  17  18  19  20  21  22  24  25 0
 3-21G
 ****
 27  28  29  32  34  39  40  41  42  43  44  45  46  47  48  49 0
 3-21G
 ****


