%nproc=1
%NoSave
%Mem=1900MB
#P OB98/GEN NMR

erre ene a

0 1
  C     -321.979     385.655    -391.751
  O     -321.893     384.260    -392.061
  P     -321.651     383.238    -390.847
  C     -323.753     381.725    -391.095
  O     -323.082     382.717    -390.323
  C     -324.893     381.077    -390.295
  O     -324.359     380.334    -389.153
  C     -325.906     382.080    -389.727
  O     -327.181     381.447    -389.658
  C     -325.394     382.309    -388.323
  O     -326.401     382.877    -387.475
  C     -324.942     380.896    -387.958
  N     -324.091     382.437    -383.230
  C     -325.167     382.664    -384.064
  N     -326.195     383.381    -383.537
  N     -325.249     382.232    -385.291
  C     -324.173     381.494    -385.662
  C     -323.035     381.211    -384.938
  C     -322.958     381.726    -383.579
  O     -322.019     381.569    -382.811
  N     -322.141     380.460    -385.672
  C     -322.737     380.308    -386.837
  N     -323.980     380.886    -386.870
  O     -321.157     384.203    -389.668
  O     -320.646     382.174    -391.141
  H     -327.159     382.250    -387.465
  H     -320.205     384.056    -389.510
  H     -324.083     382.810    -382.290
  H     -322.319     379.793    -387.683
  H     -325.780     380.254    -387.650
  H     -324.537     383.001    -388.340
  H     -326.230     383.700    -382.582
  H     -325.992     383.006    -390.297
  H     -327.009     383.528    -384.106
  H     -325.411     380.353    -390.945
  H     -323.047     380.953    -391.413
  H     -324.128     382.184    -392.013
  P     -328.264     381.860    -390.760
  C     -328.117     379.690    -392.170
  O     -327.863     381.078    -392.103
  O     -327.900     383.378    -391.096
  O     -329.695     381.703    -390.323
  H     -328.681     383.847    -391.428
  H     -328.998     379.516    -392.791
  H     -328.280     379.245    -391.184
  H     -327.254     379.188    -392.637
  H     -322.140     386.211    -392.651
  H     -321.067     385.975    -391.293
  H     -322.794     385.821    -391.078

 3  4  5  6  7  8  9  10  11  12  23  26  30  31 0
 6-311+G(2d,p)
 ****
 33  35  36  37  38 0
 6-311+G(2d,p)
 ****
 1  2  13  14  15  16  17  18  19  20  21  22  24  25 0
 3-21G
 ****
 27  28  29  32  34  39  40  41  42  43  44  45  46  47  48  49 0
 3-21G
 ****


