%nproc=1
%NoSave
%Mem=1900MB
#P OB98/GEN NMR

erre ene a

0 1
  C     -830.190    -911.953    -413.416
  O     -830.427    -911.432    -414.731
  P     -831.186    -912.280    -415.853
  C     -832.100    -910.378    -417.332
  O     -832.421    -911.428    -416.417
  C     -832.618    -909.014    -416.843
  O     -831.995    -908.649    -415.601
  C     -832.364    -907.864    -417.812
  O     -833.303    -907.875    -418.868
  C     -832.469    -906.667    -416.862
  O     -833.851    -906.313    -416.654
  C     -831.843    -907.215    -415.579
  N     -828.605    -903.402    -414.542
  C     -829.953    -903.451    -414.580
  N     -830.749    -904.505    -414.879
  C     -830.007    -905.599    -415.113
  C     -828.614    -905.705    -415.109
  C     -827.905    -904.525    -414.804
  N     -826.527    -904.478    -414.778
  N     -828.218    -906.978    -415.434
  C     -829.342    -907.650    -415.612
  N     -830.441    -906.857    -415.417
  O     -831.548    -913.668    -415.449
  O     -830.164    -912.320    -417.097
  H     -833.871    -905.471    -416.160
  H     -830.314    -913.126    -417.625
  H     -830.457    -902.524    -414.355
  H     -829.407    -908.696    -415.853
  H     -832.370    -906.854    -414.689
  H     -831.969    -905.773    -417.260
  H     -831.352    -907.923    -418.200
  H     -833.701    -909.127    -416.651
  H     -832.551    -910.614    -418.300
  H     -826.090    -903.586    -414.584
  H     -825.999    -905.304    -415.019
  H     -831.006    -910.341    -417.453
  P     -832.833    -908.243    -420.354
  C     -834.612    -910.059    -420.746
  O     -833.240    -909.783    -420.604
  O     -831.417    -907.894    -420.692
  O     -833.871    -907.464    -421.281
  H     -833.439    -907.233    -422.136
  H     -835.076    -910.102    -419.744
  H     -834.737    -911.019    -421.227
  H     -835.112    -909.284    -421.345
  H     -829.670    -911.223    -412.831
  H     -829.598    -912.841    -413.486
  H     -831.125    -912.183    -412.950

 3  4  5  6  7  8  9  10  11  12  22  25  29  30  31  32 0
 6-311+G(2d,p)
 ****
 33  36  37 0
 6-311+G(2d,p)
 ****
 1  2  13  14  15  16  17  18  19  20  21  23  24  26 0
 3-21G
 ****
 27  28  34  35  38  39  40  41  42  43  44  45  46  47  48 0
 3-21G
 ****


