%nproc=1
%NoSave
%Mem=1900MB
#P OB98/GEN NMR

erre ene a

0 1
  C      387.152      63.050      36.019
  O      386.778      64.389      36.285
  H      386.265      62.412      36.041
  H      387.597      63.002      35.024
  H      387.883      62.699      36.753
  P      386.382      64.756      37.795
  C      387.955      66.822      37.818
  O      386.627      66.336      37.960
  C      387.964      68.344      37.724
  O      387.625      68.727      36.356
  C      386.959      69.044      38.658
  O      387.566      70.235      39.168
  C      385.818      69.424      37.732
  O      385.073      70.537      38.209
  C      386.576      69.705      36.433
  N      384.649      72.328      32.523
  C      385.701      72.566      33.336
  N      386.182      71.783      34.324
  C      385.499      70.626      34.387
  C      384.410      70.241      33.620
  C      383.974      71.165      32.656
  N      382.860      70.963      31.868
  N      383.952      68.999      34.024
  C      384.734      68.655      35.030
  N      385.681      69.608      35.290
  O      387.581      64.102      38.636
  O      385.049      64.263      38.250
  H      384.779      70.349      39.122
  H      387.370      63.172      38.839
  H      386.218      73.509      33.184
  H      384.633      67.756      35.622
  H      387.025      70.704      36.414
  H      385.139      68.577      37.612
  H      386.628      68.413      39.491
  H      388.981      68.704      37.912
  H      388.392      66.407      36.901
  H      382.561      71.724      31.280
  H      382.288      70.154      32.034
  H      388.553      66.492      38.674
  P      386.864      70.953      40.423
  C      388.728      70.453      42.172
  O      388.001      71.438      41.437
  O      386.172      69.730      41.197
  O      385.865      71.996      40.037
  H      385.348      70.026      41.624
  H      389.447      70.936      42.801
  H      389.232      69.800      41.491
  H      388.050      69.886      42.775

 6  7  8  9  10  11  12  13  14  15  25  28  32  33  34  35 0
 6-311+G(2d,p)
 ****
 36  39  40 0
 6-311+G(2d,p)
 ****
 1  2  3  4  5  16  17  18  19  20  21  22  23  24 0
 3-21G
 ****
 26  27  29  30  31  37  38  41  42  43  44  45  46  47 0
 3-21G
 ****
 48 0
 3-21G
 ****


