%nproc=1
%NoSave
%Mem=1900MB
#P OB98/GEN NMR

erre ene a

0 1
  C      337.242    -168.316      72.240
  O      338.149    -168.354      73.324
  H      336.288    -167.918      72.596
  H      337.075    -169.317      71.833
  H      337.623    -167.656      71.455
  P      339.537    -169.135      73.119
  C      340.199    -171.579      72.615
  O      339.130    -170.647      72.756
  C      339.722    -173.006      72.897
  O      338.833    -173.448      71.850
  C      340.843    -174.033      72.928
  O      341.709    -173.910      74.035
  C      340.097    -175.339      72.698
  O      339.577    -175.913      73.894
  C      338.930    -174.886      71.786
  N      339.091    -175.359      70.416
  C      338.747    -176.687      70.190
  O      338.352    -177.446      71.076
  N      338.914    -177.137      68.911
  C      339.426    -176.416      67.871
  O      339.590    -176.892      66.754
  C      339.795    -175.026      68.176
  C      339.615    -174.566      69.417
  O      340.518    -169.027      74.249
  O      340.092    -168.567      71.731
  H      340.334    -176.071      74.490
  H      341.053    -168.765      71.624
  H      338.659    -178.094      68.726
  H      340.210    -174.425      67.375
  H      339.881    -173.542      69.667
  H      337.979    -175.277      72.166
  H      340.740    -176.093      72.235
  H      341.468    -173.879      72.039
  H      339.162    -173.005      73.840
  H      340.974    -171.310      73.342
  H      340.620    -171.508      71.607
  P      343.160    -174.579      74.091
  C      344.159    -176.961      73.810
  O      343.018    -176.122      73.665
  O      344.012    -174.237      75.270
  O      343.857    -173.933      72.787
  H      344.805    -173.809      72.993
  H      343.916    -177.952      73.489
  H      344.458    -176.982      74.837
  H      344.961    -176.579      73.213

 6  7  8  9  10  11  12  13  14  15  16  26  31  32  33  34  35 0
 6-311+G(2d,p)
 ****
 36  37 0
 6-311+G(2d,p)
 ****
 1  2  3  4  5  17  18  19  20  21  22  23  24  25 0
 3-21G
 ****
 27  28  29  30  38  39  40  41  42  43  44  45 0
 3-21G
 ****


