%nproc=1
%NoSave
%Mem=1900MB
#P OB98/GEN NMR

erre ene a

0 1
  C     -171.628     227.569     111.288
  O     -171.030     227.207     110.060
  H     -172.714     227.598     111.151
  H     -171.290     228.560     111.600
  H     -171.394     226.833     112.061
  P     -169.430     227.095     109.991
  C     -167.524     228.850     110.098
  O     -168.925     228.620     110.096
  C     -167.235     230.348     110.064
  O     -167.644     230.935     108.810
  C     -167.967     231.167     111.124
  O     -167.445     231.006     112.433
  C     -167.738     232.564     110.579
  O     -166.385     232.974     110.851
  C     -167.964     232.333     109.066
  N     -169.333     232.633     108.649
  C     -169.529     233.831     107.954
  O     -168.584     234.587     107.725
  N     -170.803     234.169     107.558
  C     -171.797     233.388     107.851
  N     -173.038     233.775     107.444
  C     -171.639     232.127     108.603
  C     -170.398     231.811     108.960
  O     -168.874     226.313     108.844
  O     -169.006     226.519     111.423
  H     -166.313     233.086     111.818
  H     -168.022     226.420     111.429
  H     -172.503     231.526     108.846
  H     -170.199     230.901     109.519
  H     -167.267     232.938     108.470
  H     -168.399     233.314     111.021
  H     -169.044     230.959     111.107
  H     -166.146     230.476     110.140
  H     -173.114     234.645     106.937
  H     -167.093     228.346     109.225
  H     -173.879     233.269     107.693
  H     -167.076     228.432     111.004
  P     -168.490     230.597     113.590
  C     -170.176     231.976     115.034
  O     -169.000     231.970     114.239
  O     -167.551     229.957     114.711
  O     -169.586     229.675     113.157
  H     -167.563     228.982     114.656
  H     -170.366     232.970     115.383
  H     -170.044     231.323     115.872
  H     -171.005     231.640     114.447

 6  7  8  9  10  11  12  13  14  15  16  26  30  31  32  33  35 0
 6-311+G(2d,p)
 ****
 37  38 0
 6-311+G(2d,p)
 ****
 1  2  3  4  5  17  18  19  20  21  22  23  24  25 0
 3-21G
 ****
 27  28  29  34  36  39  40  41  42  43  44  45  46 0
 3-21G
 ****


