%nproc=1
%NoSave
%Mem=1900MB
#P OB98/GEN NMR

erre ene a

0 1
  C     -917.925    -565.965    -489.741
  O     -917.762    -565.473    -491.062
  H     -918.856    -565.573    -489.337
  H     -917.095    -565.627    -489.113
  H     -917.973    -567.055    -489.745
  P     -916.427    -565.916    -491.835
  C     -917.488    -565.447    -494.137
  O     -916.472    -565.088    -493.211
  C     -917.149    -564.945    -495.539
  O     -917.301    -563.506    -495.579
  C     -915.697    -565.254    -495.953
  O     -915.671    -565.601    -497.344
  C     -914.973    -563.943    -495.730
  O     -913.817    -563.818    -496.559
  C     -916.074    -562.929    -496.036
  N     -914.678    -558.070    -496.752
  C     -914.968    -559.064    -497.623
  N     -915.353    -560.320    -497.340
  C     -915.463    -560.509    -496.017
  C     -915.201    -559.589    -495.010
  C     -914.796    -558.314    -495.425
  N     -914.467    -557.296    -494.560
  N     -915.409    -560.170    -493.772
  C     -915.783    -561.399    -494.016
  N     -915.825    -561.667    -495.363
  O     -916.211    -567.384    -491.976
  O     -915.303    -565.130    -490.998
  H     -913.176    -564.522    -496.303
  H     -915.576    -564.222    -490.808
  H     -914.880    -558.819    -498.682
  H     -916.042    -562.154    -493.267
  H     -916.174    -562.716    -497.106
  H     -914.649    -563.876    -494.692
  H     -915.252    -566.065    -495.361
  H     -917.865    -565.363    -496.255
  H     -918.454    -565.022    -493.829
  H     -914.188    -556.419    -494.939
  H     -914.559    -557.458    -493.556
  H     -917.578    -566.537    -494.133
  P     -915.339    -567.107    -497.758
  C     -917.056    -567.066    -499.690
  O     -915.710    -567.309    -499.306
  O     -915.848    -568.163    -496.836
  O     -913.734    -567.103    -497.793
  H     -913.412    -567.969    -497.451
  H     -917.164    -567.237    -500.741
  H     -917.313    -566.052    -499.465
  H     -917.705    -567.726    -499.153

 6  7  8  9  10  11  12  13  14  15  25  28  32  33  34  35 0
 6-311+G(2d,p)
 ****
 36  39  40 0
 6-311+G(2d,p)
 ****
 1  2  3  4  5  16  17  18  19  20  21  22  23  24 0
 3-21G
 ****
 26  27  29  30  31  37  38  41  42  43  44  45  46  47 0
 3-21G
 ****
 48 0
 3-21G
 ****


