%nproc=1
%NoSave
%Mem=1900MB
#P OB98/GEN NMR

erre ene a

0 1
  C      274.083    -274.153    -281.894
  O      273.809    -274.514    -283.256
  P      272.702    -273.656    -284.041
  C      273.689    -274.052    -286.446
  O      272.632    -274.287    -285.516
  C      273.329    -274.640    -287.806
  O      273.497    -276.083    -287.799
  C      271.882    -274.401    -288.234
  O      271.676    -273.058    -288.645
  C      271.733    -275.439    -289.339
  O      272.303    -274.966    -290.563
  C      272.580    -276.615    -288.780
  N      271.771    -277.696    -288.230
  C      271.848    -278.923    -288.891
  O      272.552    -279.099    -289.897
  N      271.099    -279.941    -288.367
  C      270.257    -279.841    -287.300
  O      269.607    -280.796    -286.862
  C      270.162    -278.508    -286.663
  C      270.913    -277.511    -287.151
  O      273.472    -272.261    -284.241
  O      271.401    -273.566    -283.309
  H      274.432    -272.381    -284.389
  H      271.658    -274.331    -290.937
  H      271.148    -280.834    -288.822
  H      269.493    -278.392    -285.828
  H      270.857    -276.522    -286.713
  H      273.203    -277.040    -289.584
  H      270.678    -275.694    -289.534
  H      271.201    -274.643    -287.400
  H      274.016    -274.223    -288.559
  H      274.617    -274.509    -286.083
  H      273.855    -272.972    -286.512
  P      270.301    -272.361    -288.197
  C      271.113    -269.970    -287.496
  O      270.489    -270.787    -288.458
  O      270.382    -272.506    -286.604
  O      269.089    -272.975    -288.810
  H      271.266    -272.278    -286.251
  H      271.453    -269.046    -287.978
  H      271.980    -270.467    -287.050
  H      270.402    -269.709    -286.710
  H      274.835    -274.803    -281.497
  H      273.189    -274.246    -281.314
  H      274.429    -273.141    -281.856

 3  4  5  6  7  8  9  10  11  12  13  24  28  29  30  31  32 0
 6-311+G(2d,p)
 ****
 33  34 0
 6-311+G(2d,p)
 ****
 1  2  14  15  16  17  18  19  20  21  22  23  25  26  27 0
 3-21G
 ****
 35  36  37  38  39  40  41  42  43  44  45 0
 3-21G
 ****


