%nproc=1
%NoSave
%Mem=1900MB
#P OB98/GEN NMR

erre ene a

0 1
  C      -17.973     -24.624     -30.499
  O      -18.156     -23.291     -30.933
  H      -16.973     -24.719     -30.068
  H      -18.060     -25.313     -31.344
  H      -18.714     -24.877     -29.737
  P      -19.534     -22.974     -31.695
  C      -20.741     -22.022     -29.586
  O      -20.638     -23.076     -30.532
  C      -21.563     -20.881     -30.175
  O      -22.903     -21.324     -30.481
  C      -21.733     -19.689     -29.240
  O      -20.589     -18.852     -29.198
  C      -22.915     -18.997     -29.892
  O      -22.477     -18.303     -31.074
  C      -23.805     -20.207     -30.257
  N      -24.782     -20.536     -29.219
  C      -26.114     -20.188     -29.476
  O      -26.422     -19.625     -30.524
  N      -27.064     -20.458     -28.520
  C      -26.721     -21.033     -27.411
  N      -27.700     -21.263     -26.495
  C      -25.334     -21.432     -27.106
  C      -24.429     -21.156     -28.041
  O      -19.807     -24.300     -32.549
  O      -19.569     -21.712     -32.489
  H      -23.278     -17.973     -31.522
  H      -20.703     -24.254     -32.962
  H      -25.094     -21.899     -26.162
  H      -23.388     -21.418     -27.885
  H      -24.342     -20.030     -31.197
  H      -23.392     -18.260     -29.244
  H      -22.024     -20.004     -28.233
  H      -21.095     -20.581     -31.122
  H      -28.629     -20.923     -26.705
  H      -19.731     -21.675     -29.344
  H      -27.501     -21.537     -25.541
  H      -21.223     -22.383     -28.673
  P      -20.300     -18.054     -27.835
  C      -19.213     -20.166     -26.786
  O      -20.195     -19.147     -26.665
  O      -21.695     -17.332     -27.537
  O      -19.166     -17.079     -27.902
  H      -21.558     -16.434     -27.180
  H      -19.265     -20.814     -25.936
  H      -18.241     -19.721     -26.836
  H      -19.393     -20.731     -27.677

 6  7  8  9  10  11  12  13  14  15  16  26  30  31  32  33  35 0
 6-311+G(2d,p)
 ****
 37  38 0
 6-311+G(2d,p)
 ****
 1  2  3  4  5  17  18  19  20  21  22  23  24  25 0
 3-21G
 ****
 27  28  29  34  36  39  40  41  42  43  44  45  46 0
 3-21G
 ****


