%nproc=1
%NoSave
%Mem=1900MB
#P OB98/GEN NMR

erre ene a

0 1
  C      117.840    -160.507       0.978
  O      117.950    -159.491       1.955
  P      119.391    -158.989       2.440
  C      119.633    -157.352       0.472
  O      120.200    -158.464       1.156
  C      120.717    -156.336       0.114
  O      121.243    -155.705       1.302
  C      121.927    -156.941      -0.579
  O      121.648    -157.304      -1.920
  C      122.949    -155.822      -0.416
  O      122.747    -154.799      -1.404
  C      122.596    -155.286       0.990
  N      123.539    -155.732       2.004
  C      124.851    -155.256       1.875
  O      125.173    -154.575       0.906
  N      125.761    -155.578       2.851
  C      125.430    -156.401       3.798
  N      126.351    -156.632       4.770
  C      124.102    -157.051       3.880
  C      123.210    -156.655       2.971
  O      120.144    -159.947       3.304
  O      119.081    -157.632       3.237
  H      119.528    -157.671       4.107
  H      122.835    -155.230      -2.274
  H      123.897    -157.777       4.649
  H      122.201    -157.062       2.963
  H      122.575    -154.191       0.983
  H      123.976    -156.176      -0.520
  H      122.267    -157.827      -0.026
  H      120.264    -155.562      -0.520
  H      127.240    -156.158       4.692
  H      118.890    -156.880       1.124
  H      126.099    -156.979       5.693
  H      119.124    -157.706      -0.432
  P      122.538    -158.479      -2.559
  C      121.150    -160.420      -1.556
  O      122.400    -159.757      -1.604
  O      124.041    -157.975      -2.308
  O      122.289    -158.731      -4.008
  H      124.602    -158.230      -3.063
  H      121.308    -161.432      -1.164
  H      120.695    -160.493      -2.546
  H      120.479    -159.883      -0.879
  H      116.807    -160.706       0.785
  H      118.314    -161.398       1.335
  H      118.316    -160.187       0.075

 3  4  5  6  7  8  9  10  11  12  13  24  27  28  29  30  32 0
 6-311+G(2d,p)
 ****
 34  35 0
 6-311+G(2d,p)
 ****
 1  2  14  15  16  17  18  19  20  21  22  23  25  26 0
 3-21G
 ****
 31  33  36  37  38  39  40  41  42  43  44  45  46 0
 3-21G
 ****


