%nproc=1
%NoSave
%Mem=1900MB
#P OB98/GEN NMR

erre ene a

0 1
  C       -9.563      14.671      -6.153
  O      -10.900      14.797      -5.706
  P      -11.210      14.983      -4.147
  C      -10.594      16.816      -2.406
  O      -10.280      16.178      -3.624
  C       -9.334      17.374      -1.731
  O       -8.668      16.279      -1.057
  C       -8.303      17.964      -2.688
  O       -7.416      18.799      -1.942
  C       -7.567      16.727      -3.151
  O       -6.284      17.032      -3.691
  C       -7.558      15.844      -1.877
  N       -7.695      14.415      -2.208
  C       -6.520      13.710      -2.450
  O       -5.402      14.208      -2.325
  N       -6.674      12.436      -2.925
  C       -7.866      11.842      -3.215
  O       -7.979      10.843      -3.915
  C       -9.061      12.540      -2.716
  C       -8.926      13.790      -2.265
  O      -10.553      13.676      -3.497
  O      -12.654      15.107      -3.803
  H       -5.750      17.413      -2.956
  H      -11.232      12.988      -3.366
  H       -5.826      11.978      -3.236
  H      -10.015      12.036      -2.791
  H       -9.798      14.349      -1.939
  H       -6.629      15.972      -1.309
  H       -8.150      16.238      -3.942
  H       -8.734      18.520      -3.525
  H       -9.624      18.112      -0.974
  H      -11.101      16.105      -1.747
  H      -11.299      17.637      -2.577
  P       -6.664      19.981      -2.722
  C       -7.414      22.214      -3.741
  O       -7.812      20.924      -3.325
  O       -5.607      19.559      -3.686
  O       -6.063      20.873      -1.533
  H       -5.349      21.440      -1.876
  H       -8.069      22.541      -4.552
  H       -6.380      22.221      -4.095
  H       -7.515      22.909      -2.903
  H       -9.552      14.556      -7.217
  H       -9.114      13.814      -5.697
  H       -9.013      15.548      -5.884

 3  4  5  6  7  8  9  10  11  12  13  23  28  29  30  31  32 0
 6-311+G(2d,p)
 ****
 33  34 0
 6-311+G(2d,p)
 ****
 1  2  14  15  16  17  18  19  20  21  22  24  25  26  27 0
 3-21G
 ****
 35  36  37  38  39  40  41  42  43  44  45 0
 3-21G
 ****


