%nproc=1
%NoSave
%Mem=1900MB
#P OB98/GEN NMR

erre ene a

0 1
  C     -318.204     475.869     135.295
  O     -319.217     475.988     134.315
  H     -317.703     474.905     135.169
  H     -318.629     475.913     136.302
  H     -317.466     476.666     135.168
  P     -320.275     477.185     134.462
  C     -319.103     478.727     132.761
  O     -319.452     478.527     134.129
  C     -318.307     480.022     132.580
  O     -317.817     480.132     131.225
  C     -319.117     481.289     132.808
  O     -319.546     481.483     134.134
  C     -318.246     482.341     132.139
  O     -317.189     482.792     132.992
  C     -317.658     481.544     130.948
  N     -318.276     481.915     129.676
  C     -317.513     482.729     128.845
  O     -316.392     483.146     129.143
  N     -318.098     483.077     127.660
  C     -319.357     482.743     127.256
  O     -319.830     483.107     126.183
  C     -320.129     481.914     128.195
  C     -319.561     481.543     129.343
  O     -321.016     477.238     135.765
  O     -321.227     477.015     133.188
  H     -317.583     483.432     133.613
  H     -322.060     477.537     133.290
  H     -317.555     483.652     127.033
  H     -321.135     481.636     127.912
  H     -320.114     480.925     130.056
  H     -316.579     481.723     130.865
  H     -318.820     483.220     131.842
  H     -320.034     481.219     132.207
  H     -317.434     479.982     133.243
  H     -320.032     478.791     132.185
  H     -318.519     477.872     132.403
  P     -320.727     482.472     134.548
  C     -322.777     480.875     134.840
  O     -322.114     481.848     134.042
  O     -320.492     483.928     134.331
  O     -320.814     482.224     136.143
  H     -321.066     483.075     136.555
  H     -323.680     480.570     134.354
  H     -323.011     481.296     135.795
  H     -322.139     480.026     134.971

 6  7  8  9  10  11  12  13  14  15  16  26  31  32  33  34  35 0
 6-311+G(2d,p)
 ****
 36  37 0
 6-311+G(2d,p)
 ****
 1  2  3  4  5  17  18  19  20  21  22  23  24  25 0
 3-21G
 ****
 27  28  29  30  38  39  40  41  42  43  44  45 0
 3-21G
 ****


