%nproc=1
%NoSave
%Mem=1900MB
#P OB98/GEN NMR

erre ene a

0 1
  C     -922.519    -896.160    -872.094
  O     -923.742    -895.720    -872.641
  H     -922.601    -897.230    -871.864
  H     -922.295    -895.620    -871.161
  H     -921.703    -896.020    -872.816
  P     -923.772    -894.210    -873.221
  C     -925.181    -894.610    -875.394
  O     -925.119    -894.110    -874.080
  C     -926.573    -895.170    -875.728
  O     -926.753    -896.390    -874.977
  C     -927.720    -894.200    -875.351
  O     -928.750    -894.350    -876.306
  C     -928.189    -894.730    -874.001
  O     -929.530    -894.360    -873.711
  C     -927.972    -896.250    -874.172
  N     -927.868    -896.950    -872.913
  C     -928.473    -898.230    -872.829
  O     -929.106    -898.680    -873.813
  N     -928.441    -898.920    -871.658
  C     -927.856    -898.370    -870.627
  N     -927.879    -899.110    -869.474
  C     -927.241    -897.030    -870.635
  C     -927.259    -896.400    -871.813
  O     -922.617    -894.260    -874.316
  O     -923.605    -893.150    -872.174
  H     -929.873    -894.940    -872.958
  H     -922.655    -895.060    -874.883
  H     -926.796    -896.610    -869.730
  H     -926.819    -895.430    -871.910
  H     -928.801    -896.710    -874.768
  H     -927.565    -894.380    -873.187
  H     -927.391    -893.160    -875.286
  H     -926.614    -895.430    -876.786
  H     -928.333    -900.000    -869.491
  H     -924.433    -895.390    -875.567
  H     -927.523    -898.760    -868.590
  H     -924.945    -893.780    -876.096
  P     -929.611    -893.070    -876.751
  C     -927.923    -891.920    -878.383
  O     -929.184    -892.590    -878.220
  O     -929.697    -891.970    -875.761
  O     -931.059    -893.700    -877.017
  H     -931.732    -893.080    -876.668
  H     -927.785    -891.665    -879.413
  H     -927.132    -892.567    -878.066
  H     -927.913    -891.029    -877.791

 6  7  8  9  10  11  12  13  14  15  16  26  30  31  32  33  35 0
 6-311+G(2d,p)
 ****
 37  38 0
 6-311+G(2d,p)
 ****
 1  2  3  4  5  17  18  19  20  21  22  23  24  25 0
 3-21G
 ****
 27  28  29  34  36  39  40  41  42  43  44  45  46 0
 3-21G
 ****


