%nproc=1
%NoSave
%Mem=1900MB
#P OB98/GEN NMR

erre ene a

0 1
  C       21.541     -24.133     183.689
  O       22.547     -23.144     183.572
  H       21.936     -25.079     183.309
  H       20.670     -23.848     183.091
  H       21.251     -24.263     184.736
  P       22.235     -21.717     184.240
  C       23.468     -20.567     182.224
  O       23.321     -20.706     183.626
  C       24.943     -20.649     181.825
  O       25.346     -22.045     181.813
  C       25.241     -20.065     180.442
  O       26.528     -19.447     180.479
  C       25.304     -21.295     179.548
  O       26.058     -21.061     178.364
  C       25.897     -22.336     180.513
  N       25.606     -23.708     180.099
  C       26.476     -24.281     179.164
  O       27.421     -23.629     178.717
  N       26.230     -25.556     178.723
  C       25.173     -26.184     179.130
  N       24.972     -27.437     178.638
  C       24.204     -25.604     180.082
  C       24.484     -24.381     180.529
  O       22.735     -21.942     185.744
  O       20.816     -21.275     184.120
  H       25.513     -20.525     177.747
  H       23.591     -22.397     185.804
  H       23.330     -26.165     180.383
  H       23.833     -23.881     181.237
  H       26.987     -22.219     180.577
  H       24.290     -21.592     179.248
  H       24.492     -19.341     180.116
  H       25.543     -20.153     182.599
  H       25.651     -27.788     177.970
  H       23.057     -19.610     181.891
  H       24.156     -27.997     178.841
  H       22.899     -21.370     181.741
  P       26.633     -17.849     180.560
  C       28.482     -17.399     178.805
  O       28.125     -17.395     180.184
  O       26.072     -17.224     181.792
  O       25.798     -17.378     179.267
  H       25.269     -16.598     179.524
  H       29.497     -17.077     178.698
  H       27.839     -16.734     178.268
  H       28.379     -18.389     178.413

 6  7  8  9  10  11  12  13  14  15  16  26  30  31  32  33  35 0
 6-311+G(2d,p)
 ****
 37  38 0
 6-311+G(2d,p)
 ****
 1  2  3  4  5  17  18  19  20  21  22  23  24  25 0
 3-21G
 ****
 27  28  29  34  36  39  40  41  42  43  44  45  46 0
 3-21G
 ****


