%nproc=1
%NoSave
%Mem=1900MB
#P OB98/GEN NMR

erre ene a

0 1
  C      544.411    -736.789    -340.007
  O      543.472    -737.328    -339.089
  H      544.628    -737.529    -340.771
  H      545.336    -736.566    -339.456
  H      544.026    -735.880    -340.471
  P      542.715    -736.310    -338.119
  C      540.622    -736.693    -336.623
  O      541.863    -737.207    -337.080
  C      539.600    -737.829    -336.475
  O      539.084    -738.176    -337.787
  C      540.180    -739.103    -335.853
  O      539.177    -739.702    -335.003
  C      540.387    -740.005    -337.043
  O      540.403    -741.392    -336.684
  C      539.191    -739.601    -337.904
  N      538.115    -743.311    -341.118
  C      537.651    -743.061    -339.849
  N      536.795    -743.972    -339.308
  N      537.975    -742.005    -339.149
  C      538.821    -741.172    -339.796
  C      539.365    -741.305    -341.049
  C      539.002    -742.484    -341.814
  O      539.402    -742.786    -342.944
  N      540.223    -740.272    -341.338
  C      540.215    -739.515    -340.237
  N      539.370    -740.040    -339.288
  O      541.594    -735.665    -339.071
  O      543.574    -735.260    -337.494
  H      540.870    -741.868    -337.392
  H      541.917    -734.834    -339.449
  H      537.845    -744.160    -341.603
  H      540.799    -738.632    -340.090
  H      538.250    -740.047    -337.554
  H      541.325    -739.768    -337.528
  H      536.466    -744.792    -339.794
  H      541.090    -738.948    -335.273
  H      536.408    -743.781    -338.401
  H      538.752    -737.454    -335.883
  H      540.244    -735.967    -337.364
  H      540.772    -736.178    -335.662
  P      539.303    -739.516    -333.408
  C      537.429    -739.027    -331.679
  O      537.909    -739.865    -332.724
  O      539.424    -737.913    -333.243
  O      540.497    -740.184    -332.819
  H      540.002    -737.706    -332.503
  H      536.487    -739.396    -331.330
  H      537.306    -738.030    -332.049
  H      538.132    -739.024    -330.873

 6  7  8  9  10  11  12  13  14  15  26  29  33  34 0
 6-311+G(2d,p)
 ****
 36  38  39  40  41 0
 6-311+G(2d,p)
 ****
 1  2  3  4  5  16  17  18  19  20  21  22  23  24  25 0
 3-21G
 ****
 27  28  30  31  32  35  37  42  43  44  45  46  47 0
 3-21G
 ****
 48  49 0
 3-21G
 ****


