%nproc=1
%NoSave
%Mem=1900MB
#P OB98/GEN NMR

erre ene a

0 1
  C     -139.224    -136.136      15.660
  O     -139.858    -136.696      14.530
  H     -138.950    -135.101      15.434
  H     -138.316    -136.693      15.900
  H     -139.903    -136.143      16.517
  P     -140.290    -138.238      14.630
  C     -139.053    -140.371      13.808
  O     -138.952    -139.104      14.440
  C     -137.685    -141.045      13.786
  O     -136.821    -140.370      12.843
  C     -136.947    -140.999      15.118
  O     -137.428    -141.970      16.034
  C     -135.520    -141.270      14.666
  O     -135.275    -142.678      14.524
  C     -135.462    -140.557      13.297
  N     -134.730    -139.293      13.365
  C     -133.349    -139.405      13.490
  O     -132.761    -140.486      13.539
  N     -132.661    -138.228      13.590
  C     -133.213    -136.975      13.620
  O     -132.546    -135.962      13.787
  C     -134.677    -136.922      13.472
  C     -135.361    -138.065      13.363
  O     -141.097    -138.478      13.265
  O     -141.099    -138.591      15.834
  H     -142.054    -138.481      13.443
  H     -134.418    -142.759      14.060
  H     -131.659    -138.287      13.690
  H     -135.148    -135.944      13.484
  H     -136.445    -138.049      13.274
  H     -134.969    -141.194      12.554
  H     -134.792    -140.892      15.385
  H     -136.997    -139.988      15.543
  H     -137.814    -142.084      13.450
  H     -139.405    -140.240      12.781
  H     -139.782    -140.983      14.354
  P     -136.928    -141.899      17.556
  C     -134.810    -142.828      18.802
  O     -135.446    -142.512      17.577
  O     -137.833    -143.034      18.229
  O     -137.056    -140.544      18.169
  H     -137.992    -143.792      17.643
  H     -133.835    -143.222      18.606
  H     -135.391    -143.557      19.328
  H     -134.724    -141.943      19.398

 6  7  8  9  10  11  12  13  14  15  16  27  31  32  33  34  35 0
 6-311+G(2d,p)
 ****
 36  37 0
 6-311+G(2d,p)
 ****
 1  2  3  4  5  17  18  19  20  21  22  23  24  25 0
 3-21G
 ****
 26  28  29  30  38  39  40  41  42  43  44  45 0
 3-21G
 ****


