%nproc=1
%NoSave
%Mem=1900MB
#P OB98/GEN NMR

erre ene a

0 1
  C     -586.635      45.325     183.887
  O     -587.447      46.202     183.126
  H     -586.905      44.295     183.634
  H     -586.803      45.479     184.954
  H     -585.578      45.479     183.650
  P     -587.243      47.783     183.320
  C     -589.815      48.019     183.355
  O     -588.588      48.317     184.008
  C     -590.994      48.393     184.245
  O     -590.994      47.589     185.439
  C     -590.983      49.857     184.703
  O     -591.498      50.692     183.680
  C     -591.890      49.765     185.920
  O     -593.265      49.685     185.499
  C     -591.438      48.430     186.545
  N     -590.239      48.544     191.465
  C     -591.483      48.479     190.855
  N     -592.555      48.489     191.678
  N     -591.648      48.435     189.561
  C     -590.491      48.499     188.867
  C     -589.204      48.584     189.361
  C     -589.027      48.586     190.796
  O     -587.946      48.622     191.381
  N     -588.281      48.699     188.343
  C     -589.009      48.650     187.247
  N     -590.354      48.543     187.506
  O     -586.841      48.553     182.100
  O     -586.155      47.894     184.493
  H     -593.376      48.812     185.076
  H     -585.252      47.950     184.129
  H     -590.180      48.600     192.473
  H     -588.612      48.680     186.237
  H     -592.264      47.910     187.041
  H     -591.803      50.628     186.585
  H     -592.488      48.810     192.633
  H     -589.984      50.168     185.031
  H     -593.468      48.499     191.251
  H     -591.916      48.164     183.701
  H     -589.821      46.944     183.137
  H     -589.886      48.569     182.406
  P     -590.867      52.142     183.408
  C     -593.117      52.693     182.256
  O     -592.126      53.114     183.181
  O     -589.838      52.188     182.325
  O     -590.318      52.621     184.835
  H     -589.388      52.335     185.014
  H     -593.892      53.429     182.203
  H     -593.532      51.761     182.578
  H     -592.674      52.571     181.290

 6  7  8  9  10  11  12  13  14  15  26  29  33  34 0
 6-311+G(2d,p)
 ****
 36  38  39  40  41 0
 6-311+G(2d,p)
 ****
 1  2  3  4  5  16  17  18  19  20  21  22  23  24  25 0
 3-21G
 ****
 27  28  30  31  32  35  37  42  43  44  45  46  47 0
 3-21G
 ****
 48  49 0
 3-21G
 ****


