%nproc=1
%NoSave
%Mem=1900MB
#P OB98/GEN NMR

erre ene a

0 1
  C     -124.308    -171.188     128.438
  O     -123.515    -170.153     128.969
  P     -122.966    -170.132     130.469
  C     -124.000    -169.752     132.844
  O     -124.136    -169.611     131.435
  C     -125.354    -169.585     133.550
  O     -126.169    -170.756     133.278
  C     -125.191    -169.500     135.081
  O     -126.017    -168.521     135.703
  C     -125.367    -170.950     135.522
  O     -125.705    -171.091     136.897
  C     -126.405    -171.453     134.523
  N     -126.562    -176.121     136.550
  C     -126.865    -174.907     137.137
  N     -127.062    -174.923     138.478
  N     -126.935    -173.778     136.473
  C     -126.606    -173.895     135.162
  C     -126.293    -175.047     134.472
  C     -126.250    -176.289     135.208
  O     -125.871    -177.371     134.752
  N     -125.942    -174.778     133.168
  C     -126.019    -173.463     133.079
  N     -126.387    -172.882     134.275
  O     -121.588    -169.589     130.674
  O     -122.925    -171.714     130.819
  H     -125.678    -172.045     137.109
  H     -122.159    -171.854     131.416
  H     -126.442    -176.944     137.131
  H     -125.791    -172.882     132.192
  H     -127.422    -171.217     134.848
  H     -124.404    -171.459     135.377
  H     -126.867    -175.748     139.030
  H     -124.176    -169.173     135.342
  H     -127.035    -174.029     138.957
  H     -125.870    -168.712     133.134
  H     -123.306    -168.966     133.169
  H     -123.553    -170.719     133.093
  P     -125.642    -167.476     136.852
  C     -125.307    -167.471     139.401
  O     -125.738    -168.216     138.270
  O     -126.870    -166.451     136.901
  O     -124.362    -166.736     136.629
  H     -126.538    -165.542     137.043
  H     -125.162    -168.161     140.243
  H     -126.073    -166.738     139.670
  H     -124.363    -166.958     139.193
  H     -124.545    -170.968     127.418
  H     -125.212    -171.271     129.004
  H     -123.770    -172.111     128.488

 3  4  5  6  7  8  9  10  11  12  23  26  30  31 0
 6-311+G(2d,p)
 ****
 33  35  36  37  38 0
 6-311+G(2d,p)
 ****
 1  2  13  14  15  16  17  18  19  20  21  22  24  25 0
 3-21G
 ****
 27  28  29  32  34  39  40  41  42  43  44  45  46  47  48  49 0
 3-21G
 ****


