%nproc=1
%NoSave
%Mem=1900MB
#P OB98/GEN NMR

erre ene a

0 1
  C     -769.282    -538.306    -481.599
  O     -769.586    -538.687    -482.924
  P     -770.547    -539.942    -483.210
  C     -769.271    -540.869    -485.247
  O     -770.458    -540.230    -484.788
  C     -769.420    -541.245    -486.721
  O     -770.379    -542.310    -486.896
  C     -769.944    -540.116    -487.597
  O     -769.114    -538.984    -487.769
  C     -770.333    -540.879    -488.857
  O     -769.200    -541.139    -489.686
  C     -770.879    -542.200    -488.256
  N     -772.336    -542.265    -488.307
  C     -772.877    -543.369    -488.943
  O     -772.197    -544.262    -489.454
  N     -774.249    -543.412    -489.021
  C     -775.102    -542.445    -488.572
  O     -776.322    -542.528    -488.711
  C     -774.474    -541.294    -487.913
  C     -773.144    -541.247    -487.811
  O     -771.938    -539.815    -482.679
  O     -769.731    -541.181    -482.600
  H     -768.981    -540.310    -490.144
  H     -768.849    -541.327    -482.995
  H     -774.659    -544.201    -489.499
  H     -775.129    -540.516    -487.531
  H     -772.652    -540.401    -487.331
  H     -770.479    -543.066    -488.809
  H     -771.057    -540.319    -489.458
  H     -770.864    -539.734    -487.154
  H     -768.454    -541.616    -487.074
  H     -769.109    -541.774    -484.666
  H     -768.410    -540.206    -485.089
  P     -769.658    -537.480    -487.655
  C     -768.399    -536.712    -489.793
  O     -768.626    -536.514    -488.410
  O     -770.142    -537.037    -486.312
  O     -770.893    -537.495    -488.674
  H     -771.580    -536.878    -488.359
  H     -767.640    -536.000    -490.126
  H     -769.317    -536.543    -490.356
  H     -768.018    -537.726    -489.967
  H     -768.633    -537.456    -481.612
  H     -768.797    -539.117    -481.097
  H     -770.186    -538.057    -481.083

 3  4  5  6  7  8  9  10  11  12  13  23  28  29  30  31  32 0
 6-311+G(2d,p)
 ****
 33  34 0
 6-311+G(2d,p)
 ****
 1  2  14  15  16  17  18  19  20  21  22  24  25  26  27 0
 3-21G
 ****
 35  36  37  38  39  40  41  42  43  44  45 0
 3-21G
 ****


