%nproc=1
%NoSave
%Mem=1900MB
#P OB98/GEN NMR

erre ene a

0 1
  C     -869.310      -4.986      33.397
  O     -869.076      -5.354      34.746
  P     -870.203      -6.221      35.488
  C     -868.395      -8.055      35.812
  O     -869.436      -7.280      36.418
  C     -867.747      -8.980      36.836
  O     -867.086      -8.178      37.851
  C     -868.722      -9.924      37.544
  O     -868.132     -11.242      37.628
  C     -868.787      -9.373      38.967
  O     -869.140     -10.364      39.912
  C     -867.368      -8.822      39.112
  N     -863.932      -6.097      41.628
  C     -863.836      -6.708      40.387
  N     -862.643      -6.627      39.761
  N     -864.827      -7.342      39.827
  C     -865.970      -7.319      40.548
  C     -866.186      -6.734      41.778
  C     -865.066      -6.085      42.419
  O     -865.059      -5.613      43.558
  N     -867.498      -6.895      42.185
  C     -868.067      -7.580      41.210
  N     -867.171      -7.900      40.215
  O     -870.800      -7.124      34.302
  O     -871.284      -5.436      36.157
  H     -869.048      -9.966      40.799
  H     -871.774      -6.992      34.241
  H     -863.132      -5.629      42.027
  H     -869.099      -7.895      41.181
  H     -866.650      -9.640      39.237
  H     -869.531      -8.574      38.998
  H     -861.839      -6.128      40.127
  H     -869.710      -9.991      37.077
  H     -862.554      -7.050      38.844
  H     -866.954      -9.553      36.325
  H     -867.646      -7.376      35.401
  H     -868.835      -8.638      34.989
  P     -869.124     -12.473      37.315
  C     -867.319     -14.247      36.710
  O     -868.286     -13.795      37.636
  O     -869.226     -12.459      35.703
  O     -870.470     -12.356      37.968
  H     -870.057     -12.885      35.417
  H     -867.147     -13.520      35.895
  H     -867.667     -15.186      36.259
  H     -866.383     -14.438      37.228
  H     -868.481      -4.415      33.034
  H     -870.202      -4.398      33.337
  H     -869.424      -5.868      32.801

 3  4  5  6  7  8  9  10  11  12  23  26  30  31  33  0
 6-311+G(2d,p)
 ****
 35  36  37  38 0
 6-311+G(2d,p)
 ****
 1  2  13  14  15  16  17  18  19  20  21  22  24  25  27  28  29 0
 3-21G
 ****
 32  34  39  40  41  42  43  44  45  46  47  48  49 0
 3-21G
 ****


