%nproc=1
%NoSave
%Mem=1900MB
#P OB98/GEN NMR

erre ene a

0 1
  C      496.512       0.130      48.333
  O      497.329      -0.348      47.278
  H      497.050       0.007      49.276
  H      495.589      -0.458      48.376
  H      496.279       1.186      48.187
  P      496.822      -0.045      45.789
  C      497.749      -2.344      44.925
  O      497.724      -0.928      44.791
  C      499.188      -2.853      44.860
  O      499.809      -2.474      43.613
  C      500.103      -2.256      45.911
  O      499.858      -2.773      47.210
  C      501.468      -2.656      45.360
  O      501.830      -3.987      45.749
  C      501.237      -2.569      43.833
  N      501.966      -1.459      43.239
  C      503.168      -1.800      42.605
  O      503.526      -2.980      42.561
  N      503.941      -0.799      42.079
  C      503.563       0.439      42.200
  N      504.392       1.388      41.680
  C      502.308       0.844      42.857
  C      501.562      -0.148      43.355
  O      497.349       1.443      45.537
  O      495.357      -0.220      45.583
  H      501.114      -4.573      45.423
  H      498.282       1.570      45.764
  H      502.036       1.886      42.923
  H      500.622       0.057      43.860
  H      501.571      -3.496      43.343
  H      502.256      -1.991      45.728
  H      500.040      -1.158      45.902
  H      499.169      -3.947      44.920
  H      505.268       1.070      41.279
  H      497.146      -2.815      44.141
  H      504.239       2.380      41.783
  H      497.296      -2.599      45.888
  P      499.986      -1.841      48.509
  C      501.391      -3.495      49.891
  O      500.140      -2.826      49.770
  O      498.922      -0.806      48.669
  O      501.465      -1.231      48.378
  H      502.179      -1.899      48.354
  H      501.379      -4.119      50.760
  H      502.175      -2.772      49.982
  H      501.559      -4.097      49.022

 6  7  8  9  10  11  12  13  14  15  16  26  30  31  32  33  35 0
 6-311+G(2d,p)
 ****
 37  38 0
 6-311+G(2d,p)
 ****
 1  2  3  4  5  17  18  19  20  21  22  23  24  25 0
 3-21G
 ****
 27  28  29  34  36  39  40  41  42  43  44  45  46 0
 3-21G
 ****


