%nproc=1
%NoSave
%Mem=1900MB
#P OB98/GEN NMR

erre ene a

0 1
  C      -63.307    -182.571      -5.981
  O      -63.981    -182.970      -4.805
  H      -62.265    -182.360      -5.731
  H      -63.759    -181.668      -6.399
  H      -63.330    -183.376      -6.722
  P      -65.560    -183.228      -4.882
  C      -65.439    -185.792      -5.205
  O      -65.769    -184.537      -5.784
  C      -66.592    -186.790      -5.372
  O      -67.038    -186.770      -6.758
  C      -66.210    -188.242      -5.037
  O      -67.390    -188.894      -4.551
  C      -65.830    -188.775      -6.405
  O      -65.756    -190.177      -6.412
  C      -66.913    -188.114      -7.268
  N      -66.588    -188.135      -8.685
  C      -67.217    -189.123      -9.448
  O      -67.986    -189.923      -8.916
  N      -66.935    -189.198     -10.789
  C      -66.050    -188.405     -11.306
  N      -65.807    -188.540     -12.640
  C      -65.321    -187.386     -10.522
  C      -65.639    -187.304      -9.233
  O      -66.394    -182.055      -5.278
  O      -65.939    -183.741      -3.411
  H      -65.434    -190.509      -7.279
  H      -66.394    -183.028      -2.923
  H      -64.581    -186.759     -10.999
  H      -65.156    -186.588      -8.574
  H      -67.883    -188.613      -7.124
  H      -64.842    -188.406      -6.700
  H      -65.406    -188.313      -4.300
  H      -67.439    -186.453      -4.761
  H      -66.323    -189.259     -13.135
  H      -65.240    -185.623      -4.143
  H      -65.127    -187.994     -13.146
  H      -64.534    -186.197      -5.672
  P      -67.602    -189.267      -3.005
  C      -69.450    -187.477      -2.787
  O      -68.248    -188.016      -2.242
  O      -66.386    -189.824      -2.340
  O      -68.785    -190.354      -3.000
  H      -68.655    -190.965      -2.249
  H      -69.775    -186.652      -2.188
  H      -70.208    -188.232      -2.795
  H      -69.269    -187.142      -3.787

 6  7  8  9  10  11  12  13  14  15  16  26  30  31  32  33  35 0
 6-311+G(2d,p)
 ****
 37  38 0
 6-311+G(2d,p)
 ****
 1  2  3  4  5  17  18  19  20  21  22  23  24  25 0
 3-21G
 ****
 27  28  29  34  36  39  40  41  42  43  44  45  46 0
 3-21G
 ****


