%nproc=1
%NoSave
%Mem=1900MB
#P OB98/GEN NMR

erre ene a

0 1
  C     -183.583     -17.016    -143.155
  O     -182.598     -16.019    -143.343
  H     -183.112     -17.998    -143.237
  H     -184.346     -16.928    -143.935
  H     -184.047     -16.925    -142.167
  P     -182.995     -14.513    -142.964
  C     -182.967     -14.593    -140.372
  O     -182.297     -14.180    -141.553
  C     -182.009     -14.565    -139.177
  O     -181.109     -15.701    -139.275
  C     -181.146     -13.294    -139.103
  O     -181.004     -12.911    -137.731
  C     -179.801     -13.749    -139.650
  O     -178.717     -12.953    -139.171
  C     -179.763     -15.203    -139.186
  N     -174.996     -16.784    -139.635
  C     -175.603     -16.061    -138.627
  N     -174.823     -15.696    -137.583
  N     -176.869     -15.723    -138.640
  C     -177.533     -16.186    -139.732
  C     -177.041     -16.903    -140.798
  C     -175.633     -17.250    -140.782
  O     -175.030     -17.862    -141.656
  N     -178.024     -17.157    -141.726
  C     -179.105     -16.589    -141.219
  N     -178.860     -15.995    -140.010
  O     -184.551     -14.632    -142.593
  O     -182.766     -13.499    -144.037
  H     -177.904     -13.254    -139.633
  H     -185.083     -14.123    -143.235
  H     -174.011     -17.004    -139.581
  H     -180.081     -16.572    -141.687
  H     -179.425     -15.300    -138.147
  H     -179.810     -13.688    -140.748
  H     -173.858     -15.964    -137.482
  H     -181.562     -12.461    -139.672
  H     -175.261     -15.196    -136.811
  H     -182.591     -14.698    -138.258
  H     -183.344     -15.612    -140.513
  H     -183.814     -13.923    -140.181
  P     -181.105     -11.345    -137.395
  C     -183.693     -11.419    -137.255
  O     -182.477     -11.084    -136.599
  O     -181.368     -10.684    -138.829
  O     -179.873     -10.784    -136.751
  H     -180.567     -10.210    -139.129
  H     -184.519     -11.194    -136.613
  H     -183.697     -12.463    -137.488
  H     -183.779     -10.852    -138.158

 6  7  8  9  10  11  12  13  14  15  26  29  33  34 0
 6-311+G(2d,p)
 ****
 36  38  39  40  41 0
 6-311+G(2d,p)
 ****
 1  2  3  4  5  16  17  18  19  20  21  22  23  24  25 0
 3-21G
 ****
 27  28  30  31  32  35  37  42  43  44  45  46  47 0
 3-21G
 ****
 48  49 0
 3-21G
 ****


