%nproc=1
%NoSave
%Mem=1900MB
#P OB98/GEN NMR

erre ene a

0 1
  C     -441.464    -450.117    -539.904
  O     -441.896    -449.060    -540.742
  P     -441.457    -449.106    -542.290
  C     -443.840    -448.166    -542.905
  O     -442.428    -448.084    -543.053
  C     -444.484    -446.819    -543.236
  O     -444.043    -446.369    -544.530
  C     -446.005    -446.847    -543.309
  O     -446.601    -446.864    -542.018
  C     -446.281    -445.593    -544.115
  O     -446.226    -444.422    -543.273
  C     -445.112    -445.584    -545.117
  N     -445.470    -446.088    -546.444
  C     -445.439    -445.157    -547.472
  O     -445.137    -443.974    -547.311
  N     -445.800    -445.627    -548.712
  C     -446.240    -446.889    -548.993
  O     -446.589    -447.251    -550.111
  C     -446.281    -447.812    -547.856
  C     -445.907    -447.380    -546.649
  O     -441.991    -450.558    -542.702
  O     -439.996    -448.893    -542.494
  H     -442.747    -450.834    -542.153
  H     -445.383    -444.476    -542.785
  H     -445.769    -444.972    -549.480
  H     -446.630    -448.828    -548.040
  H     -445.932    -448.049    -545.793
  H     -444.709    -444.571    -545.223
  H     -447.282    -445.600    -544.589
  H     -446.339    -447.730    -543.869
  H     -444.148    -446.082    -542.488
  H     -444.081    -448.437    -541.866
  H     -444.217    -448.953    -543.567
  P     -447.912    -447.778    -541.844
  C     -447.385    -447.693    -539.277
  O     -448.358    -447.638    -540.308
  O     -447.290    -449.247    -541.945
  O     -448.986    -447.490    -542.848
  H     -446.447    -449.335    -541.460
  H     -447.803    -447.234    -538.386
  H     -446.475    -447.159    -539.557
  H     -447.141    -448.741    -539.064
  H     -441.827    -449.956    -538.911
  H     -440.395    -450.148    -539.892
  H     -441.844    -451.045    -540.276

 3  4  5  6  7  8  9  10  11  12  13  24  28  29  30  31  32 0
 6-311+G(2d,p)
 ****
 33  34 0
 6-311+G(2d,p)
 ****
 1  2  14  15  16  17  18  19  20  21  22  23  25  26  27 0
 3-21G
 ****
 35  36  37  38  39  40  41  42  43  44  45 0
 3-21G
 ****


