%nproc=1
%NoSave
%Mem=1900MB
#P OB98/GEN NMR

erre ene a

0 1
  C      146.908    -512.833    -899.270
  O      146.741    -513.680    -898.150
  H      146.134    -513.067    -900.000
  H      147.887    -512.994    -899.720
  H      146.802    -511.783    -898.970
  P      147.762    -513.461    -896.930
  C      146.334    -511.704    -895.640
  O      147.499    -511.967    -896.400
  C      146.602    -510.578    -894.630
  O      147.734    -510.967    -893.790
  C      146.968    -509.233    -895.290
  O      146.526    -508.169    -894.430
  C      148.489    -509.288    -895.280
  O      149.031    -508.005    -895.490
  C      148.714    -509.906    -893.900
  N      153.314    -508.946    -891.930
  C      152.155    -508.268    -891.870
  N      150.959    -508.599    -892.410
  C      151.045    -509.775    -893.060
  C      152.163    -510.577    -893.210
  C      153.352    -510.118    -892.610
  N      154.547    -510.795    -892.690
  N      151.860    -511.701    -893.960
  C      150.579    -511.571    -894.250
  N      150.050    -510.427    -893.730
  O      149.183    -513.365    -897.650
  O      147.741    -514.514    -895.870
  H      148.605    -507.556    -896.250
  H      149.598    -514.245    -897.680
  H      152.175    -507.340    -891.300
  H      149.994    -512.273    -894.840
  H      148.530    -509.193    -893.080
  H      148.869    -509.942    -896.070
  H      146.540    -509.111    -896.290
  H      145.735    -510.471    -893.970
  H      146.043    -512.617    -895.100
  H      145.518    -511.402    -896.310
  H      155.356    -510.375    -892.250
  H      154.598    -511.647    -893.230
  P      145.940    -506.825    -895.090
  C      143.542    -506.712    -894.060
  O      144.341    -506.919    -895.220
  O      146.411    -506.975    -896.620
  O      146.458    -505.552    -894.510
  H      146.788    -506.128    -896.930
  H      142.508    -506.809    -894.317
  H      143.723    -505.731    -893.673
  H      143.795    -507.441    -893.318

 6  7  8  9  10  11  12  13  14  15  25  28  32  33  34  35 0
 6-311+G(2d,p)
 ****
 36  37  40 0
 6-311+G(2d,p)
 ****
 1  2  3  4  5  16  17  18  19  20  21  22  23  24 0
 3-21G
 ****
 26  27  29  30  31  38  39 41  42  43  44  45  46  47  48 0
 3-21G
 ****


