%nproc=1
%NoSave
%Mem=1900MB
#P OB98/GEN NMR

erre ene a

0 1
  C       13.845      37.175       4.998
  O       13.917      35.788       5.280
  P       13.535      35.313       6.767
  C       15.982      35.748       7.523
  O       14.600      36.001       7.750
  C       16.857      36.491       8.534
  O       16.701      37.916       8.331
  C       16.525      36.180       9.994
  O       17.751      36.159      10.726
  C       15.710      37.381      10.434
  O       15.768      37.569      11.847
  C       16.353      38.501       9.603
  N       15.465      39.647       9.440
  C       15.951      40.888       9.861
  O       17.047      40.965      10.415
  N       15.163      42.000       9.692
  C       13.953      41.866       9.243
  N       13.213      42.997       9.092
  C       13.359      40.559       8.903
  C       14.169      39.506       9.003
  O       13.968      33.773       6.772
  O       12.098      35.500       7.129
  H       15.230      38.361      12.071
  H       13.384      33.250       7.354
  H       12.334      40.498       8.568
  H       13.827      38.511       8.753
  H       17.283      38.846      10.075
  H       14.660      37.244      10.146
  H       16.004      35.227      10.118
  H       17.905      36.246       8.323
  H       13.638      43.879       9.346
  H       16.246      36.097       6.521
  H       12.262      42.990       8.749
  H       16.166      34.670       7.569
  P       18.112      34.822      11.536
  C       16.759      35.874      13.448
  O       16.988      34.712      12.675
  O       19.385      35.299      12.388
  O       18.414      33.584      10.761
  H       19.747      34.545      12.887
  H       15.886      35.704      14.084
  H       16.563      36.732      12.801
  H       17.625      36.074      14.086
  H       14.124      37.347       3.979
  H       14.512      37.706       5.645
  H       12.845      37.520       5.157

 3  4  5  6  7  8  9  10  11  12  13  21  23  27  28  29  30  32 0
 6-311+G(2d,p)
 ****
 34  35 0
 6-311+G(2d,p)
 ****
 1  2  14  15  16  17  18  19  20  22  24  25  26 0
 3-21G
 ****
 31  33  36  37  38  39  40  41  42  43  44  45  46 0
 3-21G
 ****


