%nproc=1
%NoSave
%Mem=1900MB
#P OB98/GEN NMR

erre ene a

0 1
  C     2425.713     356.156    1313.001
  O     2427.032     356.300    1312.512
  H     2425.403     355.125    1312.832
  H     2425.027     356.819    1312.463
  H     2425.678     356.365    1314.066
  P     2427.685     357.767    1312.607
  C     2429.473     356.859    1314.213
  O     2428.419     357.786    1314.043
  C     2429.773     356.676    1315.704
  O     2430.217     357.952    1316.256
  C     2428.573     356.234    1316.548
  O     2429.021     355.348    1317.592
  C     2428.078     357.487    1317.189
  O     2427.310     357.271    1318.358
  C     2429.393     358.246    1317.370
  N     2430.119     362.326    1320.370
  C     2430.588     361.044    1320.426
  N     2430.362     360.040    1319.573
  C     2429.605     360.453    1318.538
  C     2429.072     361.702    1318.333
  C     2429.328     362.689    1319.322
  N     2428.819     363.950    1319.291
  N     2428.303     361.725    1317.163
  C     2428.397     360.474    1316.682
  N     2429.163     359.683    1317.492
  O     2426.746     358.903    1312.369
  O     2428.913     357.657    1311.595
  H     2427.872     356.749    1318.973
  H     2429.414     356.840    1311.723
  H     2431.229     360.820    1321.281
  H     2427.938     360.144    1315.762
  H     2429.906     357.930    1318.305
  H     2427.417     358.037    1316.464
  H     2427.794     355.715    1315.935
  H     2430.631     355.971    1315.806
  H     2430.370     357.183    1313.700
  H     2429.080     364.574    1320.038
  H     2428.234     364.241    1318.516
  H     2429.161     355.886    1313.783
  P     2428.823     353.754    1317.384
  C     2431.118     352.946    1318.251
  O     2430.260     353.066    1317.110
  O     2427.777     353.350    1316.407
  O     2428.481     353.220    1318.860
  H     2427.735     352.601    1318.806
  H     2432.036     352.480    1317.959
  H     2430.637     352.349    1318.998
  H     2431.322     353.919    1318.648

 6  7  8  9  10  11  12  13  14  15  25  28  32  33  34  35 0
 6-311+G(2d,p)
 ****
 36  39  40 0
 6-311+G(2d,p)
 ****
 1  2  3  4  5  16  17  18  19  20  21  22  23  24 0
 3-21G
 ****
 26  27  29  30  31  37  38  41  42  43  44  45  46  47 0
 3-21G
 ****
 48 0
 3-21G
 ****


