%nproc=1
%NoSave
%Mem=1900MB
#P OB98/GEN NMR

erre ene a

0 1
  C      319.831     407.890    -415.171
  O      320.224     407.107    -414.059
  H      319.788     407.269    -416.073
  H      318.836     408.301    -414.980
  H      320.534     408.716    -415.319
  P      321.678     406.435    -414.134
  C      321.143     404.331    -412.711
  O      321.842     405.568    -412.794
  C      321.245     403.765    -411.295
  O      322.629     403.608    -410.926
  C      320.626     404.643    -410.211
  O      319.215     404.494    -410.156
  C      321.299     404.074    -408.970
  O      320.645     402.851    -408.583
  C      322.715     403.777    -409.481
  N      325.936     405.651    -405.975
  C      325.178     404.530    -405.997
  N      324.364     404.090    -406.976
  C      324.387     404.926    -408.029
  C      325.123     406.090    -408.163
  C      325.928     406.453    -407.065
  N      326.646     407.640    -407.028
  N      324.876     406.689    -409.381
  C      323.988     405.912    -409.961
  N      323.671     404.828    -409.188
  O      322.659     407.683    -413.905
  O      321.984     405.722    -415.408
  H      321.009     402.146    -409.151
  H      322.970     408.013    -414.768
  H      325.232     403.908    -405.108
  H      323.552     406.089    -410.933
  H      323.116     402.838    -409.073
  H      321.259     404.752    -408.112
  H      320.917     405.693    -410.323
  H      320.788     402.764    -411.300
  H      321.577     403.619    -413.417
  H      326.781     408.004    -406.089
  H      326.391     408.308    -407.744
  H      320.095     404.504    -412.976
  P      318.312     405.771    -410.512
  C      317.419     406.324    -408.146
  O      317.123     405.805    -409.438
  O      317.596     405.331    -411.865
  O      319.067     407.054    -410.688
  H      317.774     405.985    -412.571
  H      316.540     406.287    -407.537
  H      317.748     407.338    -408.236
  H      318.191     405.737    -407.694

 6  7  8  9  10  11  12  13  14  15  25  28  32  33  34  35 0
 6-311+G(2d,p)
 ****
 36  39  40 0
 6-311+G(2d,p)
 ****
 1  2  3  4  5  16  17  18  19  20  21  22  23  24 0
 3-21G
 ****
 26  27  29  30  31  37  38  41  42  43  44  45  46  47  48 0
 3-21G
 ****


