%nproc=1
%NoSave
%Mem=1900MB
#P OB98/GEN NMR

erre ene a

0 1
  C      -28.068       7.695      93.327
  O      -28.049       8.895      92.547
  P      -27.221      10.178      93.041
  C      -29.006      11.118      94.622
  O      -27.692      10.572      94.529
  C      -29.097      12.323      95.570
  O      -28.795      11.938      96.935
  C      -28.168      13.494      95.218
  O      -28.868      14.683      95.601
  C      -26.980      13.245      96.130
  O      -26.174      14.408      96.304
  C      -27.682      12.731      97.394
  N      -26.786      11.965      98.257
  C      -26.129      12.665      99.273
  O      -26.269      13.889      99.374
  N      -25.289      11.977     100.116
  C      -25.046      10.718      99.898
  N      -24.187      10.098     100.751
  C      -25.653       9.958      98.785
  C      -26.512      10.637      98.017
  O      -27.207      11.324      92.073
  O      -25.734       9.612      93.261
  H      -25.422      14.175      96.893
  H      -25.090      10.329      93.091
  H      -25.402       8.918      98.627
  H      -27.010      10.161      97.180
  H      -28.091      13.570      97.979
  H      -26.340      12.462      95.705
  H      -27.889      13.524      94.160
  H      -30.140      12.665      95.563
  H      -23.772      10.663     101.487
  H      -29.685      10.331      94.979
  H      -23.841       9.157     100.606
  H      -29.343      11.407      93.620
  P      -29.461      15.704      94.521
  C      -27.207      16.924      94.633
  O      -28.208      16.380      93.785
  O      -30.464      16.675      95.057
  O      -30.102      14.776      93.375
  H      -30.718      15.306      92.841
  H      -26.323      17.154      94.034
  H      -26.933      16.204      95.415
  H      -27.578      17.840      95.095
  H      -28.670       6.959      92.835
  H      -28.479       7.904      94.293
  H      -27.070       7.325      93.436

 3  4  5  6  7  8  9  10  11  12  13  23  27  28  29  30  32 0
 6-311+G(2d,p)
 ****
 34  35 0
 6-311+G(2d,p)
 ****
 1  2  14  15  16  17  18  19  20  21  22  24  25  26 0
 3-21G
 ****
 31  33  36  37  38  39  40  41  42  43  44  45  46 0
 3-21G
 ****


