%nproc=1
%NoSave
%Mem=1900MB
#P OB98/GEN NMR

erre ene a

0 1
  C     -372.950     109.748       9.037
  O     -373.046     109.580      10.436
  P     -373.407     110.771      11.440
  C     -370.894     111.294      11.844
  O     -372.169     111.797      11.468
  C     -369.743     112.248      11.490
  O     -369.701     112.446      10.063
  C     -369.990     113.626      12.117
  O     -369.634     113.873      13.458
  C     -369.429     114.622      11.106
  O     -368.114     115.070      11.453
  C     -369.399     113.824       9.799
  N     -369.853     116.211       5.346
  C     -368.737     115.629       5.907
  N     -367.558     115.885       5.292
  N     -368.767     114.889       6.987
  C     -370.001     114.805       7.545
  C     -371.185     115.329       7.075
  C     -371.137     116.106       5.860
  O     -372.091     116.709       5.373
  N     -372.224     115.103       7.939
  C     -371.667     114.481       8.960
  N     -370.307     114.314       8.782
  O     -374.050     110.388      12.735
  O     -374.504     111.587      10.583
  H     -368.175     115.544      12.306
  H     -375.157     111.952      11.209
  H     -369.753     116.835       4.557
  H     -372.185     114.162       9.854
  H     -368.389     113.844       9.361
  H     -370.058     115.522      11.059
  H     -367.479     116.561       4.548
  H     -371.077     113.790      12.092
  H     -366.707     115.615       5.771
  H     -368.775     111.811      11.760
  H     -370.761     110.328      11.342
  H     -370.879     111.099      12.920
  P     -369.914     115.219      14.283
  C     -367.568     116.228      14.135
  O     -368.927     116.360      13.748
  O     -369.341     114.906      15.748
  O     -371.351     115.618      14.365
  H     -369.766     115.498      16.399
  H     -367.064     117.184      13.984
  H     -367.081     115.465      13.519
  H     -367.484     115.945      15.187
  H     -372.698     108.813       8.582
  H     -372.190     110.468       8.816
  H     -373.889     110.090       8.654

 3  4  5  6  7  8  9  10  11  12  23  26  30  31 0
 6-311+G(2d,p)
 ****
 33  35  36  37  38 0
 6-311+G(2d,p)
 ****
 1  2  13  14  15  16  17  18  19  20  21  22  24  25 0
 3-21G
 ****
 27  28  29  32  34  39  40  41  42  43  44  45  46  47  48  49 0
 3-21G
 ****


