%nproc=1
%NoSave
%Mem=1900MB
#P OB98/GEN NMR

erre ene a

0 1
  C     -974.372    -895.759    -895.730
  O     -974.946    -895.909    -894.450
  H     -973.760    -896.639    -895.950
  H     -973.734    -894.869    -895.770
  H     -975.154    -895.689    -896.490
  P     -975.775    -894.689    -893.830
  C     -978.021    -895.839    -894.350
  O     -977.203    -894.689    -894.560
  C     -979.411    -895.619    -894.950
  O     -980.043    -894.499    -894.250
  C     -979.405    -895.299    -896.460
  O     -980.531    -895.929    -897.050
  C     -979.564    -893.789    -896.480
  O     -980.091    -893.339    -897.700
  C     -980.433    -893.529    -895.240
  N     -980.289    -892.159    -894.750
  C     -981.137    -891.209    -895.330
  O     -981.974    -891.529    -896.180
  N     -980.988    -889.889    -894.970
  C     -980.034    -889.539    -894.160
  N     -979.919    -888.229    -893.870
  C     -979.092    -890.519    -893.550
  C     -979.284    -891.789    -893.890
  O     -975.076    -893.369    -893.810
  O     -976.116    -895.189    -892.340
  H     -980.006    -892.359    -897.740
  H     -975.417    -894.909    -891.720
  H     -978.314    -890.189    -892.880
  H     -978.638    -892.589    -893.500
  H     -981.493    -893.699    -895.490
  H     -978.564    -893.319    -896.330
  H     -978.467    -895.619    -896.950
  H     -980.027    -896.509    -894.740
  H     -980.563    -887.579    -894.330
  H     -978.094    -895.999    -893.280
  H     -979.173    -887.829    -893.280
  H     -977.559    -896.709    -894.820
  P     -980.426    -896.569    -898.520
  C     -981.156    -898.989    -898.130
  O     -980.045    -898.129    -898.380
  O     -979.570    -895.809    -899.490
  O     -981.951    -896.609    -899.030
  H     -981.960    -896.529    -900.000
  H     -980.814    -900.000    -898.052
  H     -981.856    -898.911    -898.935
  H     -981.631    -898.701    -897.215

 6  7  8  9  10  11  12  13  14  15  16  26  30  31  32  33  35 0
 6-311+G(2d,p)
 ****
 37  38 0
 6-311+G(2d,p)
 ****
 1  2  3  4  5  17  18  19  20  21  22  23  24  25 0
 3-21G
 ****
 27  28  29  34  36  39  40  41  42  43  44  45  46 0
 3-21G
 ****


