%nproc=1
%NoSave
%Mem=1900MB
#P OB98/GEN NMR

erre ene a

0 1
  C     -400.179     921.670     435.677
  O     -398.914     922.287     435.800
  H     -400.103     920.855     434.951
  H     -400.911     922.393     435.311
  H     -400.505     921.261     436.639
  P     -398.751     923.419     436.929
  C     -400.198     922.791     438.995
  O     -398.939     922.682     438.346
  C     -400.303     921.771     440.130
  O     -400.294     920.434     439.558
  C     -399.163     921.860     441.145
  O     -399.689     921.618     442.449
  C     -398.238     920.713     440.751
  O     -397.448     920.251     441.840
  C     -399.244     919.685     440.203
  N     -398.602     918.748     439.286
  C     -398.333     917.465     439.786
  O     -398.624     917.182     440.949
  N     -397.690     916.562     438.978
  C     -397.277     916.938     437.803
  N     -396.611     915.998     437.072
  C     -397.472     918.291     437.265
  C     -398.147     919.140     438.048
  O     -400.091     924.285     436.788
  O     -397.522     924.255     436.823
  H     -398.048     919.895     442.534
  H     -399.936     925.219     437.015
  H     -397.085     918.556     436.292
  H     -398.339     920.160     437.735
  H     -399.703     919.116     441.026
  H     -397.564     921.044     439.954
  H     -398.644     922.826     441.133
  H     -401.277     921.900     440.623
  H     -396.478     915.083     437.479
  H     -400.990     922.597     438.262
  H     -396.209     916.185     436.161
  H     -400.322     923.813     439.388
  P     -400.518     922.817     443.126
  C     -402.896     923.595     442.427
  O     -402.084     922.535     442.904
  O     -400.211     924.058     442.167
  O     -400.119     923.098     444.540
  H     -399.618     924.695     442.622
  H     -403.906     923.255     442.331
  H     -402.536     923.918     441.472
  H     -402.858     924.412     443.117

 6  7  8  9  10  11  12  13  14  15  16  26  30  31  32  33  35 0
 6-311+G(2d,p)
 ****
 37  38 0
 6-311+G(2d,p)
 ****
 1  2  3  4  5  17  18  19  20  21  22  23  24  25 0
 3-21G
 ****
 27  28  29  34  36  39  40  41  42  43  44  45  46 0
 3-21G
 ****


