%nproc=1
%NoSave
%Mem=1900MB
#P OB98/GEN NMR

erre ene a

0 1
  C     -151.226     -67.196     -77.694
  O     -152.170     -68.244     -77.614
  H     -151.724     -66.255     -77.441
  H     -150.836     -67.124     -78.711
  H     -150.406     -67.360     -76.989
  P     -151.599     -69.739     -77.747
  C     -150.675     -71.190     -79.691
  O     -151.313     -69.981     -79.308
  C     -150.991     -71.514     -81.148
  O     -152.383     -71.878     -81.292
  C     -150.751     -70.360     -82.114
  O     -149.385     -70.263     -82.494
  C     -151.616     -70.791     -83.286
  O     -150.944     -71.826     -84.033
  C     -152.848     -71.365     -82.573
  N     -157.844     -70.530     -82.777
  C     -157.118     -71.658     -83.110
  N     -157.822     -72.712     -83.574
  N     -155.817     -71.746     -83.004
  C     -155.243     -70.610     -82.537
  C     -155.854     -69.433     -82.171
  C     -157.293     -69.352     -82.286
  O     -157.988     -68.386     -81.982
  N     -154.942     -68.509     -81.735
  C     -153.779     -69.118     -81.855
  N     -153.906     -70.395     -82.345
  O     -152.885     -70.654     -77.463
  O     -150.477     -70.081     -76.826
  H     -150.118     -71.436     -84.372
  H     -152.601     -71.454     -76.979
  H     -158.843     -70.512     -82.887
  H     -152.823     -68.682     -81.602
  H     -153.293     -72.203     -83.120
  H     -151.821     -69.976     -83.981
  H     -158.820     -72.694     -83.726
  H     -151.129     -69.412     -81.711
  H     -157.318     -73.562     -83.793
  H     -150.393     -72.389     -81.436
  H     -151.034     -72.005     -79.053
  H     -149.594     -71.081     -79.555
  P     -148.652     -68.847     -82.284
  C     -148.449     -66.676     -83.696
  O     -148.992     -67.988     -83.596
  O     -147.105     -69.212     -82.472
  O     -148.920     -68.185     -80.976
  H     -146.548     -68.547     -82.022
  H     -148.760     -66.231     -84.618
  H     -147.381     -66.729     -83.668
  H     -148.798     -66.082     -82.877

 6  7  8  9  10  11  12  13  14  15  26  29  33  34 0
 6-311+G(2d,p)
 ****
 36  38  39  40  41 0
 6-311+G(2d,p)
 ****
 1  2  3  4  5  16  17  18  19  20  21  22  23  24  25 0
 3-21G
 ****
 27  28  30  31  32  35  37  42  43  44  45  46  47 0
 3-21G
 ****
 48  49 0
 3-21G
 ****


