%nproc=1
%NoSave
%Mem=1900MB
#P OB98/GEN NMR

erre ene a

0 1
  C      265.648    -100.809     -51.937
  O      265.405    -100.369     -53.260
  H      264.985    -101.649     -51.718
  H      265.445    -100.003     -51.232
  H      266.686    -101.140     -51.829
  P      266.320     -99.158     -53.788
  C      266.217     -96.559     -53.546
  O      265.674     -97.823     -53.175
  C      265.313     -95.426     -53.058
  O      264.030     -95.526     -53.745
  C      265.009     -95.483     -51.545
  O      264.800     -94.140     -51.071
  C      263.689     -96.236     -51.519
  O      263.052     -96.067     -50.271
  C      263.010     -95.601     -52.723
  N      257.911     -95.852     -52.718
  C      258.772     -94.924     -52.236
  N      260.122     -94.926     -52.286
  C      260.563     -96.015     -52.936
  C      259.812     -97.039     -53.486
  C      258.413     -96.932     -53.348
  N      257.540     -97.883     -53.823
  N      260.636     -97.996     -54.055
  C      261.856     -97.551     -53.862
  N      261.869     -96.353     -53.196
  O      265.952     -99.075     -55.347
  O      267.784     -99.307     -53.567
  H      262.272     -96.646     -50.192
  H      266.582     -99.610     -55.864
  H      258.311     -94.070     -51.740
  H      262.774     -98.049     -54.170
  H      262.665     -94.572     -52.526
  H      263.844     -97.307     -51.668
  H      265.805     -95.961     -50.966
  H      265.755     -94.460     -53.343
  H      266.305     -96.529     -54.639
  H      267.215     -96.452     -53.101
  H      256.553     -97.747     -53.659
  H      257.896     -98.725     -54.261
  P      265.873     -93.492     -50.060
  C      266.171     -93.130     -47.485
  O      265.353     -93.614     -48.542
  O      265.707     -91.924     -50.349
  O      267.297     -93.908     -50.277
  H      266.585     -91.512     -50.436
  H      265.676     -93.289     -46.550
  H      266.348     -92.084     -47.621
  H      267.105     -93.653     -47.488

 6  7  8  9  10  11  12  13  14  15  25  28  32  33  34  35 0
 6-311+G(2d,p)
 ****
 36  37  40 0
 6-311+G(2d,p)
 ****
 1  2  3  4  5  16  17  18  19  20  21  22  23  24 0
 3-21G
 ****
 26  27  29  30  31  38  39 41  42  43  44  45  46  47  48 0
 3-21G
 ****


