%nproc=1
%NoSave
%Mem=1900MB
#P OB98/GEN NMR

erre ene a

0 1
  C     -202.958    -907.534     386.405
  O     -202.460    -908.746     385.878
  H     -203.566    -907.015     385.655
  H     -203.590    -907.761     387.270
  H     -202.136    -906.886     386.730
  P     -201.494    -908.635     384.606
  C     -201.849    -908.037     382.101
  O     -202.452    -908.316     383.356
  C     -202.927    -907.726     381.066
  O     -203.319    -906.336     381.145
  C     -202.503    -907.948     379.621
  O     -202.583    -909.318     379.243
  C     -203.536    -907.119     378.890
  O     -204.791    -907.827     378.845
  C     -203.657    -905.893     379.811
  N     -203.335    -900.856     378.940
  C     -204.382    -901.644     379.282
  N     -204.383    -902.977     379.489
  C     -203.157    -903.495     379.311
  C     -201.997    -902.804     378.957
  C     -202.121    -901.422     378.769
  N     -201.063    -900.615     378.402
  N     -200.942    -903.679     378.822
  C     -201.435    -904.860     379.147
  N     -202.768    -904.797     379.431
  O     -201.044    -910.147     384.342
  O     -200.325    -907.712     384.748
  H     -205.427    -907.251     378.386
  H     -200.228    -910.170     383.811
  H     -205.333    -901.145     379.404
  H     -200.868    -905.792     379.169
  H     -204.679    -905.487     379.845
  H     -203.258    -906.890     377.864
  H     -201.505    -907.533     379.427
  H     -203.818    -908.333     381.302
  H     -201.276    -908.907     381.779
  H     -201.294    -899.680     378.120
  H     -200.196    -901.051     378.132
  H     -201.180    -907.181     382.207
  P     -201.989    -909.724     377.803
  C     -202.442    -908.782     375.418
  O     -202.940    -909.018     376.723
  O     -202.375    -911.264     377.684
  O     -200.525    -909.469     377.639
  H     -201.740    -911.728     377.088
  H     -203.198    -908.308     374.828
  H     -202.169    -909.713     374.967
  H     -201.583    -908.147     375.474

 6  7  8  9  10  11  12  13  14  15  25  28  32  33  34  35 0
 6-311+G(2d,p)
 ****
 36  39  40 0
 6-311+G(2d,p)
 ****
 1  2  3  4  5  16  17  18  19  20  21  22  23  24 0
 3-21G
 ****
 26  27  29  30  31  37  38  41  42  43  44  45  46  47 0
 3-21G
 ****
 48 0
 3-21G
 ****


