%nproc=1
%NoSave
%Mem=1900MB
#P OB98/GEN NMR

erre ene a

0 1
  C       84.420    -119.291    -451.216
  O       84.736    -120.688    -451.149
  P       83.519    -121.734    -451.040
  C       82.762    -121.889    -453.521
  O       83.399    -122.529    -452.426
  C       82.216    -122.927    -454.507
  O       81.388    -122.326    -455.521
  C       83.303    -123.673    -455.271
  O       83.846    -124.743    -454.500
  C       82.515    -124.223    -456.447
  O       81.790    -125.404    -456.048
  C       81.539    -123.081    -456.745
  N       80.550    -121.261    -461.430
  C       79.918    -122.184    -460.672
  N       80.250    -122.627    -459.442
  C       81.355    -122.009    -458.996
  C       82.110    -121.052    -459.663
  C       81.663    -120.673    -460.940
  N       82.310    -119.734    -461.710
  N       83.185    -120.648    -458.894
  C       83.076    -121.344    -457.778
  N       81.991    -122.182    -457.795
  O       82.232    -120.783    -451.043
  O       83.563    -122.584    -449.814
  H       81.131    -125.126    -455.386
  H       81.535    -121.164    -450.479
  H       79.027    -122.621    -461.105
  H       83.747    -121.270    -456.936
  H       80.541    -123.440    -457.036
  H       83.156    -124.517    -457.287
  H       84.081    -122.985    -455.624
  H       81.608    -123.648    -453.941
  H       83.464    -121.220    -454.031
  H       81.918    -119.496    -462.603
  H       83.132    -119.274    -461.337
  H       81.952    -121.252    -453.144
  P       85.418    -125.029    -454.648
  C       86.211    -123.516    -452.692
  O       86.035    -124.833    -453.184
  O       85.941    -123.756    -455.471
  O       85.744    -126.313    -455.335
  H       86.708    -124.004    -456.021
  H       86.344    -123.569    -451.607
  H       85.335    -122.894    -452.906
  H       87.105    -123.072    -453.136
  H       85.325    -118.724    -451.285
  H       83.885    -119.004    -450.335
  H       83.815    -119.103    -452.078

 3  4  5  6  7  8  9  10  11  12  22  25  29  30  31  32 0
 6-311+G(2d,p)
 ****
 33  36  37 0
 6-311+G(2d,p)
 ****
 1  2  13  14  15  16  17  18  19  20  21  23  24  26 0
 3-21G
 ****
 27  28  34  35  38  39  40  41  42  43  44  45  46  47  48 0
 3-21G
 ****


