%nproc=1
%NoSave
%Mem=1900MB
#P OB98/GEN NMR

erre ene a

0 1
  C       83.580     -93.478     -78.172
  O       82.710     -92.496     -78.709
  P       82.311     -91.202     -77.856
  C       84.547     -89.991     -78.208
  O       83.671     -90.580     -77.254
  C       84.403     -88.470     -78.232
  O       84.745     -87.935     -76.922
  C       85.294     -87.757     -79.264
  O       84.562     -86.617     -79.729
  C       86.475     -87.290     -78.421
  O       87.199     -86.224     -79.020
  C       85.752     -86.925     -77.125
  N       87.458     -84.086     -73.213
  C       86.596     -83.807     -74.219
  N       86.213     -84.612     -75.238
  C       86.815     -85.809     -75.153
  C       87.739     -86.227     -74.204
  C       88.049     -85.306     -73.184
  N       88.897     -85.586     -72.133
  N       88.180     -87.510     -74.490
  C       87.530     -87.854     -75.586
  N       86.651     -86.888     -75.984
  O       81.224     -91.413     -76.852
  O       81.879     -90.128     -78.963
  H       87.669     -85.738     -78.316
  H       80.906     -90.025     -78.964
  H       86.146     -82.818     -74.199
  H       87.661     -88.784     -76.131
  H       85.254     -85.951     -77.194
  H       87.167     -88.128     -78.268
  H       85.599     -88.390     -80.102
  H       83.347     -88.232     -78.413
  H       84.292     -90.396     -79.193
  H       88.943     -84.904     -71.387
  H       89.143     -86.556     -71.939
  H       85.584     -90.268     -77.977
  P       84.978     -85.907     -81.111
  C       83.591     -87.504     -82.561
  O       84.895     -87.034     -82.242
  O       86.251     -85.128     -81.068
  O       83.713     -84.967     -81.439
  H       83.977     -84.290     -82.092
  H       83.283     -88.248     -81.814
  H       83.612     -87.977     -83.547
  H       82.871     -86.682     -82.577
  H       83.723     -94.258     -78.890
  H       83.150     -93.887     -77.282
  H       84.523     -93.030     -77.939

 3  4  5  6  7  8  9  10  11  12  22  25  29  30  31  32 0
 6-311+G(2d,p)
 ****
 33  36  37 0
 6-311+G(2d,p)
 ****
 1  2  13  14  15  16  17  18  19  20  21  23  24  26 0
 3-21G
 ****
 27  28  34  35  38  39  40  41  42  43  44  45  46  47  48 0
 3-21G
 ****


