%nproc=1
%NoSave
%Mem=1900MB
#P OB98/GEN NMR

erre ene a

0 1
  C     -533.459     689.621     277.698
  O     -533.429     690.302     278.943
  H     -534.335     689.955     277.138
  H     -533.530     688.539     277.846
  H     -532.562     689.854     277.125
  P     -532.404     689.779     280.063
  C     -530.436     691.253     279.264
  O     -530.939     689.929     279.404
  C     -529.120     691.429     280.024
  O     -528.146     690.458     279.586
  C     -528.452     692.784     279.803
  O     -529.154     693.877     280.332
  C     -527.032     692.504     280.272
  O     -526.897     692.610     281.687
  C     -526.838     691.028     279.819
  N     -525.978     690.920     278.645
  C     -524.622     691.101     278.865
  O     -524.134     691.365     279.972
  N     -523.824     690.993     277.760
  C     -524.239     690.788     276.494
  O     -523.468     690.724     275.530
  C     -525.691     690.637     276.311
  C     -526.492     690.703     277.379
  O     -532.687     688.412     280.621
  O     -532.420     690.937     281.164
  H     -526.827     693.558     281.899
  H     -532.020     690.629     282.017
  H     -522.829     691.115     277.911
  H     -526.066     690.478     275.302
  H     -527.557     690.603     277.275
  H     -526.388     690.444     280.632
  H     -526.315     693.200     279.827
  H     -528.393     692.959     278.716
  H     -529.314     691.257     281.084
  H     -531.191     691.942     279.678
  H     -530.297     691.478     278.199
  P     -528.964     695.376     279.823
  C     -530.592     695.082     277.790
  O     -529.291     695.432     278.247
  O     -527.757     696.113     280.316
  O     -530.266     696.102     280.455
  H     -530.004     697.010     280.685
  H     -530.633     695.175     276.725
  H     -531.314     695.736     278.233
  H     -530.808     694.072     278.069

 6  7  8  9  10  11  12  13  14  15  16  26  31  32  33  34  35 0
 6-311+G(2d,p)
 ****
 36  37 0
 6-311+G(2d,p)
 ****
 1  2  3  4  5  17  18  19  20  21  22  23  24  25 0
 3-21G
 ****
 27  28  29  30  38  39  40  41  42  43  44  45 0
 3-21G
 ****


