%nproc=1
%NoSave
%Mem=1900MB
#P OB98/GEN NMR

erre ene a

0 1
  C     -417.317    -216.930     135.432
  O     -416.984    -218.272     135.136
  H     -417.616    -216.839     136.480
  H     -416.438    -216.302     135.259
  H     -418.128    -216.591     134.781
  P     -418.131    -219.369     135.363
  C     -418.814    -219.455     132.864
  O     -419.218    -219.161     134.195
  C     -418.576    -218.159     132.090
  O     -417.506    -217.430     132.743
  C     -418.193    -218.352     130.613
  O     -419.122    -217.675     129.766
  C     -416.840    -217.669     130.480
  O     -416.693    -216.934     129.269
  C     -416.780    -216.760     131.703
  N     -412.938    -213.429     131.410
  C     -414.268    -213.269     131.258
  N     -415.250    -214.172     131.454
  C     -414.739    -215.342     131.880
  C     -413.405    -215.647     132.108
  C     -412.475    -214.629     131.838
  N     -411.115    -214.805     131.943
  N     -413.270    -216.957     132.533
  C     -414.492    -217.448     132.518
  N     -415.410    -216.513     132.112
  O     -418.887    -218.842     136.677
  O     -417.644    -220.769     135.531
  H     -415.807    -216.528     129.293
  H     -419.004    -219.580     137.304
  H     -414.592    -212.285     130.922
  H     -414.764    -218.470     132.746
  H     -417.262    -215.792     131.520
  H     -416.053    -218.435     130.516
  H     -418.132    -219.408     130.329
  H     -419.482    -217.540     132.170
  H     -419.603    -220.025     132.360
  H     -410.520    -214.063     131.621
  H     -410.763    -215.730     132.152
  H     -417.906    -220.062     132.890
  P     -420.549    -218.384     129.543
  C     -422.158    -216.846     130.892
  O     -421.450    -218.073     130.835
  O     -420.198    -219.943     129.703
  O     -421.174    -218.087     128.223
  H     -420.834    -220.482     129.195
  H     -422.706    -216.793     131.810
  H     -422.837    -216.787     130.067
  H     -421.465    -216.032     130.842

 6  7  8  9  10  11  12  13  14  15  25  28  32  33  34  35 0
 6-311+G(2d,p)
 ****
 36  39  40 0
 6-311+G(2d,p)
 ****
 1  2  3  4  5  16  17  18  19  20  21  22  23  24 0
 3-21G
 ****
 26  27  29  30  31  37  38  41  42  43  44  45  46  47  48 0
 3-21G
 ****


