%nproc=1
%NoSave
%Mem=1900MB
#P OB98/GEN NMR

erre ene a

0 1
  C       55.605     363.520    -141.159
  O       55.657     363.046    -139.814
  P       56.378     363.945    -138.699
  C       58.651     362.753    -138.930
  O       57.955     363.987    -139.008
  C       59.941     362.905    -138.114
  O       60.961     363.598    -138.888
  C       59.729     363.713    -136.824
  O       60.595     363.237    -135.785
  C       60.196     365.103    -137.218
  O       60.531     365.886    -136.077
  C       61.369     364.758    -138.135
  N       63.763     369.269    -138.526
  C       63.658     368.394    -137.501
  N       63.023     367.203    -137.476
  C       62.470     366.936    -138.670
  C       62.503     367.727    -139.808
  C       63.182     368.954    -139.705
  N       63.264     369.860    -140.738
  N       61.815     367.126    -140.848
  C       61.337     366.015    -140.327
  N       61.732     365.838    -139.029
  O       56.027     363.628    -137.282
  O       55.913     365.430    -139.085
  H       60.845     366.751    -136.396
  H       55.696     365.920    -138.268
  H       64.144     368.691    -136.575
  H       60.694     365.315    -140.840
  H       62.263     364.485    -137.563
  H       59.399     365.620    -137.767
  H       58.700     363.712    -136.453
  H       60.337     361.909    -137.883
  H       58.888     362.401    -139.939
  H       63.669     370.760    -140.537
  H       62.710     369.702    -141.571
  H       57.989     361.995    -138.495
  P       59.986     362.099    -134.824
  C       59.783     363.379    -132.553
  O       59.144     362.877    -133.706
  O       61.009     361.129    -134.325
  O       58.874     361.432    -135.764
  H       58.268     362.065    -136.187
  H       59.067     363.982    -131.988
  H       60.630     364.016    -132.825
  H       60.128     362.557    -131.920
  H       55.094     362.805    -141.769
  H       56.600     363.657    -141.528
  H       55.082     364.453    -141.188

 3  4  5  6  7  8  9  10  11  12  22  25  29  30  31  32 0
 6-311+G(2d,p)
 ****
 33  36  37 0
 6-311+G(2d,p)
 ****
 1  2  13  14  15  16  17  18  19  20  21  23  24  26 0
 3-21G
 ****
 27  28  34  35  38  39  40  41  42  43  44  45  46  47  48 0
 3-21G
 ****


