%nproc=1
%NoSave
%Mem=1900MB
#P OB98/GEN NMR

erre ene a

0 1
  C     -165.238     429.705     547.156
  O     -164.238     429.182     548.026
  P     -163.204     430.196     548.709
  C     -163.231     429.936     551.346
  O     -162.685     429.589     550.094
  C     -162.090     430.213     552.334
  O     -162.624     430.579     553.629
  C     -161.175     429.010     552.556
  O     -160.142     428.947     551.588
  C     -160.672     429.251     553.965
  O     -159.639     430.252     553.963
  C     -161.947     429.793     554.651
  N     -162.907     428.815     555.211
  C     -162.623     428.178     556.415
  O     -161.602     428.358     557.071
  N     -163.575     427.300     556.870
  C     -164.824     427.124     556.354
  O     -165.657     426.372     556.837
  C     -165.130     427.935     555.166
  C     -164.175     428.716     554.655
  O     -164.121     431.425     549.159
  O     -162.083     430.628     547.825
  H     -160.063     431.108     553.779
  H     -163.873     432.232     548.666
  H     -163.354     426.773     557.701
  H     -166.127     427.863     554.754
  H     -164.393     429.318     553.774
  H     -161.686     430.478     555.467
  H     -160.224     428.352     554.382
  H     -161.758     428.084     552.562
  H     -161.504     431.062     551.959
  H     -163.870     429.136     551.725
  H     -163.862     430.823     551.240
  P     -159.597     427.524     551.100
  C     -161.541     426.646     549.678
  O     -160.272     427.268     549.665
  O     -159.710     426.402     552.080
  O     -158.068     427.822     550.710
  H     -157.465     427.596     551.455
  H     -161.963     426.673     548.670
  H     -162.223     427.171     550.361
  H     -161.439     425.599     549.989
  H     -165.843     428.904     546.785
  H     -164.770     430.207     546.335
  H     -165.852     430.397     547.694

 3  4  5  6  7  8  9  10  11  12  13  23  28  29  30  31  32 0
 6-311+G(2d,p)
 ****
 33  34 0
 6-311+G(2d,p)
 ****
 1  2  14  15  16  17  18  19  20  21  22  24  25  26  27 0
 3-21G
 ****
 35  36  37  38  39  40  41  42  43  44  45 0
 3-21G
 ****


