%nproc=1
%NoSave
%Mem=1900MB
#P OB98/GEN NMR

erre ene a

0 1
  C     -133.004     -47.023    -570.909
  O     -132.303     -47.907    -571.760
  H     -133.412     -47.576    -570.061
  H     -132.309     -46.263    -570.542
  H     -133.811     -46.524    -571.455
  P     -133.174     -48.994    -572.551
  C     -133.438     -51.580    -572.377
  O     -132.930     -50.386    -571.788
  C     -132.902     -52.808    -571.647
  O     -131.445     -52.801    -571.736
  C     -133.281     -52.853    -570.165
  O     -133.566     -54.210    -569.800
  C     -132.021     -52.385    -569.461
  O     -131.934     -52.869    -568.120
  C     -130.936     -52.920    -570.392
  N     -126.635     -52.484    -567.667
  C     -127.644     -53.378    -567.628
  N     -128.754     -53.431    -568.393
  C     -128.733     -52.443    -569.303
  C     -127.783     -51.451    -569.470
  C     -126.693     -51.480    -568.584
  N     -125.679     -50.548    -568.593
  N     -128.145     -50.595    -570.499
  C     -129.294     -51.067    -570.942
  N     -129.692     -52.177    -570.254
  O     -132.346     -49.167    -573.916
  O     -134.601     -48.630    -572.805
  H     -131.088     -52.563    -567.737
  H     -132.557     -48.427    -574.519
  H     -127.544     -54.159    -566.880
  H     -129.871     -50.627    -571.749
  H     -130.700     -53.980    -570.201
  H     -131.997     -51.287    -569.427
  H     -134.143     -52.227    -569.929
  H     -133.243     -53.703    -572.176
  H     -133.137     -51.613    -573.435
  H     -124.963     -50.620    -567.886
  H     -125.740     -49.771    -569.230
  H     -134.536     -51.565    -572.320
  P     -135.067     -54.535    -569.324
  C     -136.263     -54.870    -567.069
  O     -135.168     -54.297    -567.744
  O     -135.167     -56.128    -569.488
  O     -136.109     -53.840    -570.150
  H     -135.973     -56.368    -569.990
  H     -136.204     -54.632    -566.027
  H     -136.243     -55.932    -567.194
  H     -137.174     -54.480    -567.472

 6  7  8  9  10  11  12  13  14  15  25  28  32  33  34  35 0
 6-311+G(2d,p)
 ****
 36  39  40 0
 6-311+G(2d,p)
 ****
 1  2  3  4  5  16  17  18  19  20  21  22  23  24 0
 3-21G
 ****
 26  27  29  30  31  37  38  41  42  43  44  45  46  47 0
 3-21G
 ****
 48 0
 3-21G
 ****


