%nproc=1
%NoSave
%Mem=1900MB
#P OB98/GEN NMR

erre ene a

0 1
  C      -84.058      31.177      46.233
  O      -82.653      31.305      46.309
  H      -84.494      31.541      47.167
  H      -84.338      30.129      46.097
  H      -84.445      31.775      45.404
  P      -81.814      30.717      45.071
  C      -81.568      33.165      44.204
  O      -81.991      31.837      43.932
  C      -82.438      34.156      43.440
  O      -83.834      33.962      43.762
  C      -82.154      35.622      43.755
  O      -80.992      36.120      43.115
  C      -83.418      36.257      43.206
  O      -83.360      36.283      41.768
  C      -84.487      35.261      43.704
  N      -85.038      35.619      45.013
  C      -86.105      36.524      45.018
  O      -86.543      36.986      43.967
  N      -86.633      36.916      46.225
  C      -86.155      36.431      47.329
  N      -86.717      36.858      48.492
  C      -85.042      35.467      47.370
  C      -84.537      35.108      46.192
  O      -82.733      29.523      44.533
  O      -80.403      30.332      45.360
  H      -82.698      36.959      41.529
  H      -82.377      29.183      43.676
  H      -84.668      35.100      48.315
  H      -83.716      34.401      46.142
  H      -85.313      35.180      42.988
  H      -83.566      37.285      43.535
  H      -82.110      35.800      44.836
  H      -82.318      33.950      42.370
  H      -87.439      37.565      48.434
  H      -80.523      33.263      43.893
  H      -86.320      36.657      49.400
  H      -81.641      33.370      45.276
  P      -79.899      36.852      44.036
  C      -77.841      36.864      42.443
  O      -78.466      36.296      43.587
  O      -80.124      36.181      45.469
  O      -80.018      38.343      44.090
  H      -79.958      36.824      46.186
  H      -76.898      36.387      42.278
  H      -77.688      37.911      42.603
  H      -78.467      36.722      41.587

 6  7  8  9  10  11  12  13  14  15  16  26  30  31  32  33  35 0
 6-311+G(2d,p)
 ****
 37  38 0
 6-311+G(2d,p)
 ****
 1  2  3  4  5  17  18  19  20  21  22  23  24  25 0
 3-21G
 ****
 27  28  29  34  36  39  40  41  42  43  44  45  46 0
 3-21G
 ****


