%nproc=1
%NoSave
%Mem=1900MB
#P OB98/GEN NMR

erre ene a

0 1
  C      100.664     894.505    -278.368
  O      100.085     894.982    -279.572
  P       98.926     896.090    -279.561
  C       99.923     898.158    -280.748
  O       99.155     896.975    -280.890
  C       99.984     898.909    -282.099
  O      100.863     898.157    -282.986
  C       98.634     899.056    -282.815
  O       98.653     900.332    -283.492
  C       98.631     897.933    -283.796
  O       97.746     898.130    -284.891
  C      100.119     897.877    -284.208
  N      100.493     896.579    -284.775
  C      100.545     896.486    -286.162
  O      100.236     897.427    -286.875
  N      100.936     895.285    -286.719
  C      101.191     894.269    -285.963
  N      101.631     893.118    -286.553
  C      101.063     894.308    -284.485
  C      100.740     895.485    -283.973
  O       98.812     896.879    -278.305
  O       97.603     895.279    -279.942
  H       96.822     898.130    -284.538
  H       97.165     894.846    -279.159
  H      101.252     893.417    -283.894
  H      100.645     895.624    -282.910
  H      100.346     898.680    -284.927
  H       98.323     896.990    -283.303
  H       97.797     899.045    -282.112
  H      100.446     899.878    -281.932
  H      101.860     893.179    -287.546
  H      100.927     897.889    -280.443
  H      102.146     892.419    -286.034
  H       99.476     898.812    -279.978
  P       97.245     901.022    -283.853
  C       97.246     903.102    -282.273
  O       97.401     902.609    -283.595
  O       96.345     900.582    -282.600
  O       96.590     900.612    -285.123
  H       95.396     900.579    -282.863
  H       97.409     904.187    -282.278
  H       98.006     902.659    -281.613
  H       96.255     902.879    -281.887
  H      101.413     893.775    -278.597
  H       99.905     894.059    -277.760
  H      101.111     895.321    -277.839

 3  4  5  6  7  8  9  10  11  12  13  23  27  28  29  30  32 0
 6-311+G(2d,p)
 ****
 34  35 0
 6-311+G(2d,p)
 ****
 1  2  14  15  16  17  18  19  20  21  22  24  25  26 0
 3-21G
 ****
 31  33  36  37  38  39  40  41  42  43  44  45  46 0
 3-21G
 ****


