%nproc=1
%NoSave
%Mem=1900MB
#P OB98/GEN NMR

erre ene a

0 1
  C      406.379     915.918    -560.891
  O      405.076     916.244    -560.415
  P      404.360     917.651    -560.622
  C      402.632     916.713    -562.355
  O      403.663     917.651    -562.064
  C      402.078     916.867    -563.782
  O      403.103     916.520    -564.757
  C      400.915     915.893    -564.024
  O      399.612     916.242    -563.598
  C      401.012     915.513    -565.496
  O      400.193     916.336    -566.326
  C      402.499     915.761    -565.818
  N      403.189     911.626    -568.762
  C      402.233     912.634    -568.880
  N      401.323     912.503    -569.861
  N      402.189     913.669    -568.077
  C      403.096     913.626    -567.071
  C      404.082     912.688    -566.847
  C      404.176     911.574    -567.779
  O      404.993     910.673    -567.742
  N      404.809     912.966    -565.734
  C      404.269     914.068    -565.250
  N      403.220     914.520    -566.047
  O      405.173     918.854    -560.260
  O      403.109     917.578    -559.590
  H      400.443     917.254    -566.178
  H      402.966     918.495    -559.278
  H      403.197     910.878    -569.424
  H      404.584     914.594    -564.366
  H      402.612     916.358    -566.721
  H      400.689     914.483    -565.647
  H      401.247     911.684    -570.432
  H      401.165     914.971    -563.469
  H      400.520     913.119    -569.805
  H      401.815     917.903    -563.997
  H      401.831     916.874    -561.619
  H      402.997     915.695    -562.208
  P      399.056     916.184    -562.092
  C      399.047     918.750    -562.038
  O      399.436     917.565    -561.370
  O      400.014     915.135    -561.359
  O      397.619     915.794    -561.964
  H      399.604     914.838    -560.526
  H      399.616     919.598    -561.633
  H      397.970     918.922    -561.863
  H      399.236     918.681    -563.131
  H      406.617     914.912    -560.617
  H      407.094     916.585    -560.457
  H      406.404     916.013    -561.957

 3  4  5  6  7  8  9  10  11  12  23  26  30  31 0
 6-311+G(2d,p)
 ****
 33  35  36  37  38 0
 6-311+G(2d,p)
 ****
 1  2  13  14  15  16  17  18  19  20  21  22  24  25 0
 3-21G
 ****
 27  28  29  32  34  39  40  41  42  43  44  45  46  47  48  49 0
 3-21G
 ****


