%nproc=1
%NoSave
%Mem=1900MB
#P OB98/GEN NMR

erre ene a

0 1
  C     -214.729      93.084     432.827
  O     -214.502      93.824     431.643
  H     -215.787      92.823     432.885
  H     -214.464      93.684     433.702
  H     -214.135      92.163     432.822
  P     -212.987      94.230     431.320
  C     -213.523      96.512     430.200
  O     -213.035      95.184     430.027
  C     -213.286      97.339     428.938
  O     -211.945      97.079     428.442
  C     -214.264      97.030     427.784
  O     -214.519      98.256     427.086
  C     -213.445      96.133     426.880
  O     -213.931      96.111     425.538
  C     -212.063      96.766     427.040
  N     -210.012      94.626     422.969
  C     -211.059      95.527     423.083
  N     -211.651      95.917     421.932
  N     -211.479      96.005     424.223
  C     -210.770      95.557     425.282
  C     -209.726      94.666     425.313
  C     -209.287      94.122     424.044
  O     -208.377      93.310     423.881
  N     -209.297      94.437     426.603
  C     -210.091      95.194     427.345
  N     -210.996      95.887     426.596
  O     -212.365      92.863     430.755
  O     -212.201      94.763     432.475
  H     -213.888      97.034     425.182
  H     -211.940      92.364     431.477
  H     -209.744      94.288     422.066
  H     -210.041      95.258     428.427
  H     -211.961      97.696     426.473
  H     -213.451      95.102     427.259
  H     -211.347      95.629     421.008
  H     -215.207      96.585     428.106
  H     -212.388      96.612     421.987
  H     -213.328      98.405     429.209
  H     -212.991      96.977     431.039
  H     -214.593      96.473     430.432
  P     -215.822      99.105     427.501
  C     -216.133     100.398     425.251
  O     -215.820     100.471     426.638
  O     -215.456      99.623     428.975
  O     -217.092      98.329     427.483
  H     -216.273      99.754     429.485
  H     -216.090     101.378     424.824
  H     -217.118      99.998     425.128
  H     -215.427      99.763     424.759

 6  7  8  9  10  11  12  13  14  15  26  29  33  34 0
 6-311+G(2d,p)
 ****
 36  38  39  40  41 0
 6-311+G(2d,p)
 ****
 1  2  3  4  5  16  17  18  19  20  21  22  23  24  25 0
 3-21G
 ****
 27  28  30  31  32  35  37  42  43  44  45  46  47 0
 3-21G
 ****
 48  49 0
 3-21G
 ****


