%nproc=1
%NoSave
%Mem=1900MB
#P OB98/GEN NMR

erre ene a

0 1
  C      253.260    -359.954     245.194
  O      253.311    -359.385     246.488
  H      252.237    -359.880     244.816
  H      253.542    -361.009     245.240
  H      253.928    -359.419     244.511
  P      254.758    -359.172     247.142
  C      256.422    -357.177     247.205
  O      255.332    -357.795     246.543
  C      256.732    -355.828     246.552
  O      257.227    -356.068     245.203
  C      255.519    -354.896     246.437
  O      255.964    -353.551     246.634
  C      255.086    -355.072     244.994
  O      254.337    -353.977     244.481
  C      256.440    -355.256     244.306
  N      256.323    -355.883     242.993
  C      256.708    -355.130     241.887
  O      257.215    -354.013     241.942
  N      256.486    -355.715     240.666
  C      255.913    -356.937     240.452
  O      255.720    -357.398     239.331
  C      255.519    -357.682     241.658
  C      255.738    -357.127     242.852
  O      255.648    -360.290     246.420
  O      254.810    -359.272     248.631
  H      255.623    -361.124     246.922
  H      254.129    -354.177     243.545
  H      256.757    -355.186     239.855
  H      255.050    -358.648     241.524
  H      255.442    -357.642     243.762
  H      256.954    -354.287     244.210
  H      254.472    -355.976     244.897
  H      254.712    -355.124     247.142
  H      257.544    -355.345     247.110
  H      257.306    -357.817     247.130
  H      256.174    -357.041     248.264
  P      256.453    -353.141     248.111
  C      258.160    -354.254     249.757
  O      257.710    -354.083     248.420
  O      255.272    -353.741     249.005
  O      256.684    -351.673     248.261
  H      254.911    -354.573     248.649
  H      259.003    -354.913     249.768
  H      257.372    -354.673     250.348
  H      258.443    -353.305     250.162

 6  7  8  9  10  11  12  13  14  15  16  27  31  32  33  34  35 0
 6-311+G(2d,p)
 ****
 36  37 0
 6-311+G(2d,p)
 ****
 1  2  3  4  5  17  18  19  20  21  22  23  24  25 0
 3-21G
 ****
 26  28  29  30  38  39  40  41  42  43  44  45 0
 3-21G
 ****


