%nproc=1
%NoSave
%Mem=1900MB
#P OB98/GEN NMR

erre ene a

0 1
  C     -267.917    -895.880     372.165
  O     -267.585    -897.260     372.134
  P     -267.263    -897.970     373.538
  C     -265.897    -897.230     375.624
  O     -266.124    -897.090     374.226
  C     -264.809    -896.280     376.095
  O     -265.185    -894.920     375.818
  C     -264.525    -896.340     377.593
  O     -263.752    -897.480     377.899
  C     -263.811    -895.020     377.811
  O     -262.389    -895.150     377.559
  C     -264.466    -894.080     376.772
  N     -265.349    -893.100     377.389
  C     -264.863    -891.790     377.413
  O     -263.741    -891.540     376.964
  N     -265.642    -890.810     377.988
  C     -266.796    -891.130     378.499
  N     -267.524    -890.120     379.048
  C     -267.340    -892.500     378.509
  C     -266.568    -893.430     377.942
  O     -266.489    -899.290     373.095
  O     -268.458    -898.260     374.385
  H     -262.092    -895.870     378.140
  H     -266.598    -900.000     373.769
  H     -268.303    -892.700     378.941
  H     -266.880    -894.470     377.906
  H     -263.707    -893.550     376.192
  H     -263.910    -894.670     378.843
  H     -265.467    -896.350     378.156
  H     -263.888    -896.500     375.511
  H     -267.125    -889.190     379.037
  H     -265.590    -898.260     375.836
  H     -268.447    -890.260     379.450
  H     -266.851    -897.030     376.154
  P     -263.724    -897.970     379.419
  C     -263.230    -896.710     381.597
  O     -262.967    -896.810     380.213
  O     -262.618    -899.130     379.385
  O     -265.012    -898.440     380.010
  H     -262.572    -899.580     380.253
  H     -262.545    -895.990     382.042
  H     -263.081    -897.690     382.083
  H     -264.261    -896.370     381.758
  H     -268.106    -895.536     371.170
  H     -267.103    -895.327     372.584
  H     -268.792    -895.737     372.764

 3  4  5  6  7  8  9  10  11  12  13  21  23  27  28  29  30  32 0
 6-311+G(2d,p)
 ****
 34  35 0
 6-311+G(2d,p)
 ****
 1  2  14  15  16  17  18  19  20  22  24  25  26 0
 3-21G
 ****
 31  33  36  37  38  39  40  41  42  43  44  45  46 0
 3-21G
 ****


