%nproc=1
%NoSave
%Mem=1900MB
#P OB98/GEN NMR

erre ene a

0 1
  C      -68.716     945.006    -272.067
  O      -67.888     944.676    -273.161
  H      -68.973     946.068    -272.135
  H      -68.186     944.843    -271.125
  H      -69.634     944.422    -272.087
  P      -67.318     943.182    -273.293
  C      -69.560     942.489    -274.337
  O      -68.620     942.230    -273.297
  C      -70.779     941.572    -274.206
  O      -70.358     940.186    -274.286
  C      -71.548     941.745    -272.888
  O      -72.949     941.836    -273.151
  C      -71.255     940.457    -272.134
  O      -72.254     940.134    -271.169
  C      -71.110     939.469    -273.293
  N      -70.466     938.230    -272.884
  C      -71.278     937.088    -272.863
  O      -72.465     937.163    -273.185
  N      -70.740     935.907    -272.423
  C      -69.509     935.872    -271.997
  N      -69.055     934.672    -271.549
  C      -68.629     937.052    -271.979
  C      -69.166     938.187    -272.439
  O      -66.279     942.823    -272.286
  O      -66.795     943.076    -274.803
  H      -72.042     939.254    -270.783
  H      -66.136     942.344    -274.860
  H      -67.621     936.983    -271.609
  H      -68.595     939.110    -272.467
  H      -72.097     939.223    -273.726
  H      -70.299     940.547    -271.605
  H      -71.234     942.618    -272.323
  H      -71.431     941.740    -275.073
  H      -69.694     933.890    -271.572
  H      -69.072     942.338    -275.301
  H      -68.126     934.531    -271.178
  H      -69.890     943.532    -274.251
  P      -73.662     943.202    -272.705
  C      -74.294     944.275    -274.981
  O      -73.426     944.291    -273.862
  O      -72.752     943.715    -271.487
  O      -75.094     943.019    -272.290
  H      -73.256     943.629    -270.652
  H      -74.014     945.053    -275.661
  H      -75.301     944.432    -274.654
  H      -74.223     943.328    -275.474

 6  7  8  9  10  11  12  13  14  15  16  26  30  31  32  33  35 0
 6-311+G(2d,p)
 ****
 37  38 0
 6-311+G(2d,p)
 ****
 1  2  3  4  5  17  18  19  20  21  22  23  24  25 0
 3-21G
 ****
 27  28  29  34  36  39  40  41  42  43  44  45  46 0
 3-21G
 ****


