%nproc=1
%NoSave
%Mem=1900MB
#P OB98/GEN NMR

erre ene a

0 1
  C     -191.012     344.659    -382.171
  O     -191.367     343.860    -383.283
  H     -191.596     345.587    -382.171
  H     -191.236     344.104    -381.256
  H     -189.943     344.890    -382.193
  P     -191.088     344.489    -384.735
  C     -193.634     344.579    -385.229
  O     -192.413     345.302    -385.133
  C     -194.637     345.358    -386.077
  O     -195.719     344.492    -386.487
  C     -195.299     346.533    -385.364
  O     -194.457     347.676    -385.339
  C     -196.515     346.757    -386.256
  O     -196.124     347.482    -387.437
  C     -196.908     345.317    -386.628
  N     -201.515     343.088    -386.588
  C     -200.695     343.446    -387.598
  N     -199.475     344.017    -387.532
  C     -199.108     344.198    -386.250
  C     -199.824     343.860    -385.113
  C     -201.091     343.286    -385.315
  N     -201.953     342.986    -384.267
  N     -199.127     344.214    -383.972
  C     -198.016     344.767    -384.418
  N     -197.956     344.774    -385.785
  O     -191.122     343.201    -385.690
  O     -189.804     345.240    -384.866
  H     -196.356     348.418    -387.278
  H     -190.209     342.897    -385.854
  H     -201.073     343.257    -388.602
  H     -197.234     345.178    -383.790
  H     -197.236     345.235    -387.669
  H     -197.306     347.334    -385.765
  H     -195.638     346.258    -384.360
  H     -194.121     345.694    -386.989
  H     -194.050     344.430    -384.228
  H     -202.935     343.034    -384.523
  H     -201.690     343.399    -383.379
  H     -193.432     343.605    -385.681
  P     -194.628     348.705    -384.118
  C     -196.706     349.720    -385.285
  O     -196.177     349.137    -384.098
  O     -193.875     350.014    -384.646
  O     -194.069     348.246    -382.815
  H     -193.180     350.272    -384.010
  H     -197.738     349.958    -385.136
  H     -196.613     349.027    -386.095
  H     -196.164     350.613    -385.516

 6  7  8  9  10  11  12  13  14  15  25  28  32  33  34  35 0
 6-311+G(2d,p)
 ****
 36  39  40 0
 6-311+G(2d,p)
 ****
 1  2  3  4  5  16  17  18  19  20  21  22  23  24 0
 3-21G
 ****
 26  27  29  30  31  37  38  41  42  43  44  45  46  47  48 0
 3-21G
 ****


