%nproc=1
%NoSave
%Mem=1900MB
#P OB98/GEN NMR

erre ene a

0 1
  C        3.217     -20.200     209.641
  O        2.989     -21.025     210.768
  P        1.508     -21.282     211.319
  C       -0.659     -22.268     210.378
  O        0.562     -21.613     210.068
  C       -1.751     -21.917     209.368
  O       -2.071     -20.502     209.477
  C       -1.376     -22.203     207.907
  O       -2.555     -22.687     207.252
  C       -0.996     -20.833     207.377
  O       -1.090     -20.755     205.961
  C       -1.976     -19.945     208.149
  N       -1.554     -18.553     208.188
  C       -2.040     -17.718     207.177
  O       -2.681     -18.189     206.241
  N       -1.772     -16.374     207.258
  C       -0.935     -15.938     208.153
  N       -0.749     -14.593     208.239
  C       -0.208     -16.834     209.075
  C       -0.595     -18.111     209.069
  O        0.981     -20.224     212.233
  O        1.609     -22.692     212.078
  H        1.264     -22.588     212.987
  H       -2.037     -20.742     205.706
  H        0.566     -16.443     209.718
  H       -0.141     -18.840     209.731
  H       -2.979     -19.998     207.704
  H        0.038     -20.602     207.664
  H       -0.580     -22.947     207.813
  H       -2.659     -22.474     209.639
  H       -1.296     -14.008     207.620
  H       -0.978     -21.951     211.372
  H       -0.386     -14.152     209.083
  H       -0.503     -23.355     210.413
  P       -2.378     -23.684     206.003
  C       -1.596     -26.146     205.765
  O       -1.519     -24.943     206.500
  O       -1.315     -22.888     205.099
  O       -3.606     -23.973     205.201
  H       -1.417     -23.161     204.170
  H       -1.004     -26.907     206.279
  H       -1.187     -26.007     204.761
  H       -2.631     -26.494     205.699
  H        4.266     -20.158     209.436
  H        2.853     -19.214     209.841
  H        2.704     -20.604     208.793

 3  4  5  6  7  8  9  10  11  12  13  24  27  28  29  30  32 0
 6-311+G(2d,p)
 ****
 34  35 0
 6-311+G(2d,p)
 ****
 1  2  14  15  16  17  18  19  20  21  22  23  25  26 0
 3-21G
 ****
 31  33  36  37  38  39  40  41  42  43  44  45  46 0
 3-21G
 ****


