%nproc=1
%NoSave
%Mem=1900MB
#P OB98/GEN NMR

erre ene a

0 1
  C      565.904      94.776     319.587
  O      567.279      94.454     319.575
  H      565.541      94.737     320.617
  H      565.344      94.049     318.989
  H      565.745      95.783     319.191
  P      568.050      94.679     318.187
  C      567.971      93.162     316.049
  O      567.251      93.859     317.055
  C      567.271      91.845     315.721
  O      567.402      90.911     316.814
  C      565.772      91.964     315.527
  O      565.428      92.587     314.304
  C      565.361      90.501     315.592
  O      565.510      89.846     314.325
  C      566.357      89.926     316.629
  N      565.703      89.573     317.874
  C      565.001      88.354     317.861
  O      564.987      87.665     316.841
  N      564.307      87.981     318.976
  C      564.289      88.771     320.015
  N      563.544      88.354     321.079
  C      565.013      90.055     320.069
  C      565.692      90.392     318.977
  O      569.380      93.812     318.394
  O      568.297      96.107     317.832
  H      565.134      88.949     314.436
  H      569.218      92.915     318.719
  H      564.972      90.663     320.960
  H      566.246      91.322     318.931
  H      566.844      89.028     316.228
  H      564.313      90.388     315.883
  H      565.318      92.488     316.378
  H      567.757      91.410     314.832
  H      563.027      87.493     320.977
  H      568.998      92.981     316.365
  H      563.396      88.914     321.904
  H      568.008      93.806     315.161
  P      564.132      93.515     314.178
  C      561.584      93.109     314.167
  O      562.864      92.578     314.515
  O      564.003      94.276     312.905
  O      564.211      94.434     315.491
  H      564.213      93.948     316.327
  H      560.822      92.407     314.434
  H      561.548      93.291     313.113
  H      561.424      94.027     314.693

 6  7  8  9  10  11  12  13  14  15  16  26  30  31  32  33  35 0
 6-311+G(2d,p)
 ****
 37  38 0
 6-311+G(2d,p)
 ****
 1  2  3  4  5  17  18  19  20  21  22  23  24  25 0
 3-21G
 ****
 27  28  29  34  36  39  40  41  42  43  44  45  46 0
 3-21G
 ****


