%nproc=1
%NoSave
%Mem=1900MB
#P OB98/GEN NMR

erre ene a

0 1
  C     -167.988      19.110    -171.443
  O     -168.177      20.211    -172.314
  P     -168.462      19.912    -173.862
  C     -171.044      19.669    -173.757
  O     -169.795      19.023    -173.957
  C     -172.163      18.926    -174.487
  O     -173.450      19.468    -174.087
  C     -172.079      19.037    -176.013
  O     -172.561      17.821    -176.606
  C     -173.077      20.128    -176.344
  O     -173.539      20.025    -177.691
  C     -174.148      19.866    -175.285
  N     -178.652      21.983    -176.150
  C     -178.250      20.675    -176.331
  N     -179.148      19.843    -176.900
  N     -177.075      20.224    -175.978
  C     -176.280      21.173    -175.426
  C     -176.573      22.496    -175.183
  C     -177.871      22.985    -175.589
  O     -178.280      24.136    -175.483
  N     -175.524      23.137    -174.578
  C     -174.581      22.221    -174.492
  N     -174.979      21.023    -175.027
  O     -167.296      18.883    -174.245
  O     -168.426      21.112    -174.745
  H     -172.854      20.427    -178.257
  H     -166.616      19.335    -174.779
  H     -179.566      22.286    -176.449
  H     -173.593      22.376    -174.080
  H     -174.805      19.038    -175.574
  H     -172.614      21.112    -176.215
  H     -180.044      20.144    -177.254
  H     -171.078      19.255    -176.397
  H     -178.861      18.889    -177.083
  H     -172.149      17.874    -174.175
  H     -170.985      20.687    -174.140
  H     -171.263      19.719    -172.684
  P     -172.005      17.485    -178.074
  C     -169.727      17.367    -176.820
  O     -170.422      17.710    -178.002
  O     -172.525      18.716    -178.956
  O     -172.453      16.168    -178.613
  H     -172.607      18.451    -179.890
  H     -169.017      16.567    -177.046
  H     -170.400      17.031    -176.026
  H     -169.175      18.242    -176.466
  H     -167.809      19.467    -170.450
  H     -167.148      18.535    -171.772
  H     -168.864      18.496    -171.449

 3  4  5  6  7  8  9  10  11  12  23  26  30  31 0
 6-311+G(2d,p)
 ****
 33  35  36  37  38 0
 6-311+G(2d,p)
 ****
 1  2  13  14  15  16  17  18  19  20  21  22  24  25 0
 3-21G
 ****
 27  28  29  32  34  39  40  41  42  43  44  45  46  47  48  49 0
 3-21G
 ****


