%nproc=1
%NoSave
%Mem=1900MB
#P OB98/GEN NMR

erre ene a

0 1
  C     -622.873     176.904     -14.364
  O     -623.572     178.006     -13.812
  H     -623.265     175.984     -13.919
  H     -621.806     176.981     -14.135
  H     -623.025     176.867     -15.445
  P     -623.159     179.456     -14.357
  C     -625.389     179.686     -15.647
  O     -623.972     179.610     -15.730
  C     -625.944     180.574     -16.758
  O     -627.380     180.511     -16.790
  C     -625.594     182.049     -16.612
  O     -624.284     182.309     -17.080
  C     -626.648     182.681     -17.513
  O     -626.240     182.568     -18.891
  C     -627.879     181.794     -17.258
  N     -632.770     183.115     -16.420
  C     -632.112     182.789     -17.548
  N     -630.803     182.488     -17.707
  C     -630.157     182.554     -16.532
  C     -630.697     182.877     -15.295
  C     -632.073     183.157     -15.261
  N     -632.742     183.486     -14.100
  N     -629.727     182.842     -14.313
  C     -628.633     182.458     -14.938
  N     -628.831     182.302     -16.288
  O     -621.696     179.732     -14.420
  O     -623.985     180.401     -13.362
  H     -625.423     183.093     -18.997
  H     -624.859     180.019     -13.173
  H     -632.712     182.755     -18.454
  H     -627.682     182.254     -14.459
  H     -628.445     181.611     -18.181
  H     -626.788     183.745     -17.306
  H     -625.748     182.400     -15.584
  H     -625.576     180.181     -17.717
  H     -625.694     180.076     -14.669
  H     -633.684     183.836     -14.191
  H     -632.200     183.632     -13.266
  H     -625.780     178.667     -15.752
  P     -623.720     183.812     -17.153
  C     -621.712     183.796     -15.543
  O     -623.086     184.130     -15.713
  O     -624.699     184.825     -17.634
  O     -622.438     183.716     -18.099
  H     -622.381     184.508     -18.671
  H     -621.403     184.052     -14.551
  H     -621.123     184.340     -16.251
  H     -621.578     182.746     -15.699

 6  7  8  9  10  11  12  13  14  15  25  28  32  33  34  35 0
 6-311+G(2d,p)
 ****
 36  39  40 0
 6-311+G(2d,p)
 ****
 1  2  3  4  5  16  17  18  19  20  21  22  23  24 0
 3-21G
 ****
 26  27  29  30  31  37  38  41  42  43  44  45  46  47 0
 3-21G
 ****
 48 0
 3-21G
 ****


