%nproc=1
%NoSave
%Mem=1900MB
#P OB98/GEN NMR

erre ene a

0 1
  C     -112.375      14.635     -35.126
  O     -111.170      13.907     -35.026
  H     -112.963      14.461     -34.221
  H     -112.946      14.282     -35.990
  H     -112.188      15.707     -35.223
  P     -109.947      14.310     -35.975
  C     -110.310      12.379     -37.648
  O     -110.283      13.788     -37.456
  C     -110.462      12.006     -39.124
  O     -111.703      12.531     -39.645
  C     -109.353      12.603     -39.991
  O     -108.151      11.856     -40.038
  C     -110.022      12.651     -41.362
  O     -109.885      11.393     -42.043
  C     -111.488      12.916     -41.015
  N     -112.205      16.762     -44.301
  C     -111.715      15.493     -44.541
  N     -111.310      15.238     -45.805
  N     -111.615      14.573     -43.619
  C     -111.967      15.000     -42.383
  C     -112.454      16.237     -42.021
  C     -112.612      17.233     -43.061
  O     -113.034      18.374     -42.899
  N     -112.706      16.303     -40.671
  C     -112.303      15.136     -40.210
  N     -111.871      14.302     -41.215
  O     -108.773      13.316     -35.518
  O     -109.508      15.740     -35.883
  H     -108.981      11.060     -41.894
  H     -107.906      13.717     -35.707
  H     -112.285      17.422     -45.055
  H     -112.327      14.836     -39.168
  H     -112.162      12.304     -41.627
  H     -109.568      13.410     -42.006
  H     -111.258      15.950     -46.518
  H     -109.136      13.630     -39.679
  H     -110.707      14.428     -45.960
  H     -110.507      10.915     -39.218
  H     -111.160      11.999     -37.078
  H     -109.409      11.922     -37.229
  P     -106.762      12.546     -39.645
  C     -105.970      12.713     -42.119
  O     -106.281      13.390     -40.920
  O     -105.750      11.307     -39.603
  O     -106.775      13.297     -38.358
  H     -105.644      10.990     -38.687
  H     -105.669      13.422     -42.861
  H     -106.833      12.182     -42.463
  H     -105.173      12.022     -41.942

 6  7  8  9  10  11  12  13  14  15  26  29  33  34 0
 6-311+G(2d,p)
 ****
 36  38  39  40  41 0
 6-311+G(2d,p)
 ****
 1  2  3  4  5  16  17  18  19  20  21  22  23  24  25 0
 3-21G
 ****
 27  28  30  31  32  35  37  42  43  44  45  46  47 0
 3-21G
 ****
 48  49 0
 3-21G
 ****


