%nproc=1
%NoSave
%Mem=1900MB
#P OB98/GEN NMR

erre ene a

0 1
  C      112.057     112.724     858.397
  O      113.207     113.542     858.261
  H      111.649     112.531     857.403
  H      111.298     113.241     858.991
  H      112.314     111.767     858.865
  P      114.092     113.851     859.567
  C      115.848     114.254     857.719
  O      115.447     114.528     859.056
  C      116.965     115.210     857.303
  O      118.110     115.058     858.174
  C      117.481     114.969     855.893
  O      116.592     115.475     854.927
  C      118.823     115.684     855.960
  O      118.661     117.104     855.780
  C      119.284     115.356     857.393
  N      120.253     114.254     857.445
  C      121.574     114.587     857.173
  O      121.946     115.720     856.875
  N      122.469     113.545     857.238
  C      122.157     112.230     857.425
  O      122.985     111.327     857.386
  C      120.734     111.940     857.676
  C      119.860     112.946     857.676
  O      114.270     112.711     860.515
  O      113.320     115.073     860.262
  H      117.987     117.211     855.078
  H      112.836     114.748     861.042
  H      123.432     113.757     857.034
  H      120.454     110.913     857.841
  H      118.813     112.758     857.864
  H      119.753     116.237     857.852
  H      119.514     115.340     855.180
  H      117.663     113.899     855.736
  H      116.587     116.241     857.410
  H      114.985     114.385     857.058
  H      116.186     113.207     857.657
  P      115.826     114.468     853.932
  C      114.297     116.365     853.128
  O      115.196     115.344     852.741
  O      114.884     113.518     854.593
  O      117.021     113.675     853.206
  H      116.940     112.724     853.400
  H      113.944     116.878     852.258
  H      114.799     117.057     853.771
  H      113.468     115.932     853.648

 6  7  8  9  10  11  12  13  14  15  16  26  31  32  33  34  35 0
 6-311+G(2d,p)
 ****
 36  37 0
 6-311+G(2d,p)
 ****
 1  2  3  4  5  17  18  19  20  21  22  23  24  25 0
 3-21G
 ****
 27  28  29  30  38  39  40  41  42  43  44  45 0
 3-21G
 ****


