%nproc=1
%NoSave
%Mem=1900MB
#P OB98/GEN NMR

erre ene a

0 1
  C       18.642    -361.664     291.001
  O       17.887    -361.027     292.013
  H       17.974    -362.007     290.208
  H       19.345    -360.940     290.579
  H       19.205    -362.507     291.408
  P       17.008    -361.965     292.972
  C       18.531    -362.185     295.063
  O       18.050    -362.793     293.873
  C       18.209    -363.054     296.276
  O       18.903    -364.326     296.130
  C       18.630    -362.443     297.623
  O       17.625    -362.754     298.594
  C       19.901    -363.200     297.966
  O       20.157    -363.236     299.365
  C       19.605    -364.568     297.361
  N       23.220    -367.305     299.661
  C       21.988    -366.923     300.059
  N       21.062    -366.238     299.358
  C       21.490    -366.004     298.107
  C       22.717    -366.335     297.556
  C       23.618    -367.004     298.402
  N       24.901    -367.334     298.032
  N       22.803    -365.870     296.257
  C       21.661    -365.251     296.037
  N       20.836    -365.302     297.128
  O       16.441    -363.062     291.952
  O       15.915    -361.279     293.719
  H       20.994    -363.717     299.520
  H       15.610    -362.743     291.558
  H       21.710    -367.196     301.074
  H       21.395    -364.726     295.132
  H       18.969    -365.187     298.007
  H       20.754    -362.725     297.470
  H       18.786    -361.359     297.588
  H       17.134    -363.273     296.271
  H       18.044    -361.209     295.188
  H       25.510    -367.714     298.739
  H       25.247    -367.019     297.137
  H       19.611    -362.030     294.980
  P       16.464    -361.673     298.826
  C       14.405    -362.940     297.860
  O       15.343    -361.882     297.702
  O       17.158    -360.294     298.407
  O       15.953    -361.628     300.230
  H       16.805    -359.562     298.941
  H       13.729    -362.944     297.031
  H       13.856    -362.797     298.767
  H       14.925    -363.874     297.901

 6  7  8  9  10  11  12  13  14  15  25  28  32  33  34  35 0
 6-311+G(2d,p)
 ****
 36  39  40 0
 6-311+G(2d,p)
 ****
 1  2  3  4  5  16  17  18  19  20  21  22  23  24 0
 3-21G
 ****
 26  27  29  30  31  37  38  41  42  43  44  45  46  47 0
 3-21G
 ****
 48 0
 3-21G
 ****


