%nproc=1
%NoSave
%Mem=1900MB
#P OB98/GEN NMR

erre ene a

0 1
  C      -42.670     181.271     -97.793
  O      -42.259     180.036     -98.386
  P      -42.515     178.705     -97.529
  C      -40.478     177.168     -98.013
  O      -41.836     177.475     -98.301
  C      -40.004     176.012     -98.893
  O      -40.669     174.775     -98.556
  C      -40.283     176.226    -100.375
  O      -39.377     177.162    -100.934
  C      -40.132     174.804    -100.903
  O      -38.743     174.470    -101.062
  C      -40.736     173.972     -99.760
  N      -43.890     170.005    -100.456
  C      -42.558     170.072    -100.240
  N      -41.791     171.169    -100.067
  C      -42.538     172.285    -100.122
  C      -43.903     172.372    -100.330
  C      -44.593     171.161    -100.508
  N      -45.947     171.093    -100.743
  N      -44.313     173.690    -100.325
  C      -43.210     174.385    -100.140
  N      -42.112     173.580    -100.000
  O      -44.083     178.447     -97.705
  O      -42.136     178.838     -96.090
  H      -38.370     175.087    -101.724
  H      -44.550     178.643     -96.872
  H      -42.038     169.120    -100.203
  H      -43.155     175.466    -100.101
  H      -40.168     173.054     -99.570
  H      -40.618     174.652    -101.871
  H      -41.313     176.573    -100.520
  H      -38.926     175.882     -98.733
  H      -40.366     176.900     -96.959
  H      -46.349     170.190    -100.937
  H      -46.465     171.951    -100.870
  H      -39.872     178.064     -98.176
  P      -39.944     178.186    -102.030
  C      -37.473     178.300    -102.722
  O      -38.650     179.040    -102.456
  O      -40.757     179.215    -101.120
  O      -40.702     177.558    -103.148
  H      -40.251     179.479    -100.330
  H      -36.687     178.993    -103.031
  H      -37.650     177.582    -103.527
  H      -37.148     177.776    -101.819
  H      -42.446     182.078     -98.459
  H      -42.148     181.415     -96.870
  H      -43.723     181.244     -97.606

 3  4  5  6  7  8  9  10  11  12  22  25  29  30  31  32 0
 6-311+G(2d,p)
 ****
 33  36  37 0
 6-311+G(2d,p)
 ****
 1  2  13  14  15  16  17  18  19  20  21  23  24  26 0
 3-21G
 ****
 27  28  34  35  38  39  40  41  42  43  44  45  46  47  48 0
 3-21G
 ****


