%nproc=1
%NoSave
%Mem=1900MB
#P OB98/GEN NMR

erre ene a

0 1
  C      -59.224     366.875    -321.794
  O      -58.120     367.753    -321.823
  H      -60.137     367.466    -321.682
  H      -59.131     366.194    -320.941
  H      -59.293     366.296    -322.720
  P      -56.708     367.199    -322.336
  C      -55.500     367.854    -320.147
  O      -55.564     368.019    -321.555
  C      -55.728     369.187    -319.420
  O      -54.668     370.111    -319.775
  C      -57.046     369.819    -319.878
  O      -57.622     370.642    -318.865
  C      -56.613     370.705    -321.038
  O      -57.538     371.754    -321.318
  C      -55.246     371.179    -320.547
  N      -53.338     374.934    -323.417
  C      -54.360     374.972    -322.493
  N      -54.970     376.169    -322.329
  N      -54.763     373.935    -321.807
  C      -54.110     372.791    -322.131
  C      -53.096     372.619    -323.043
  C      -52.636     373.783    -323.772
  O      -51.745     373.807    -324.618
  N      -52.699     371.307    -323.119
  C      -53.474     370.684    -322.256
  N      -54.340     371.546    -321.619
  O      -56.590     367.776    -323.828
  O      -56.545     365.708    -322.311
  H      -58.424     371.366    -321.327
  H      -55.997     367.220    -324.359
  H      -53.052     375.767    -323.905
  H      -53.445     369.624    -322.042
  H      -55.352     372.056    -319.894
  H      -56.555     370.078    -321.936
  H      -54.818     376.951    -322.954
  H      -57.774     369.071    -320.188
  H      -55.890     376.156    -321.885
  H      -55.676     369.043    -318.340
  H      -54.503     367.460    -319.916
  H      -56.227     367.107    -319.818
  P      -58.670     369.949    -317.867
  C      -60.655     370.658    -319.432
  O      -60.104     370.621    -318.126
  O      -58.237     370.501    -316.424
  O      -58.669     368.464    -317.921
  H      -57.783     369.794    -315.924
  H      -61.609     371.142    -319.403
  H      -60.773     369.659    -319.798
  H      -59.999     371.201    -320.081

 6  7  8  9  10  11  12  13  14  15  26  29  33  34 0
 6-311+G(2d,p)
 ****
 36  38  39  40  41 0
 6-311+G(2d,p)
 ****
 1  2  3  4  5  16  17  18  19  20  21  22  23  24  25 0
 3-21G
 ****
 27  28  30  31  32  35  37  42  43  44  45  46  47 0
 3-21G
 ****
 48  49 0
 3-21G
 ****


