%nproc=1
%NoSave
%Mem=1900MB
#P OB98/GEN NMR

erre ene a

0 1
  C      -16.263      29.882     -95.173
  O      -16.358      31.116     -94.469
  P      -17.817      31.757     -94.287
  C      -17.383      32.556     -91.826
  O      -17.722      32.891     -93.161
  C      -17.074      33.817     -90.999
  O      -15.795      34.348     -91.439
  C      -18.064      34.966     -91.162
  O      -17.906      35.868     -90.060
  C      -17.566      35.628     -92.431
  O      -18.070      36.955     -92.565
  C      -16.030      35.503     -92.290
  N      -15.329      35.335     -93.579
  C      -15.291      36.418     -94.458
  O      -15.808      37.511     -94.229
  N      -14.661      36.200     -95.656
  C      -14.042      35.044     -96.037
  O      -13.568      34.875     -97.156
  C      -13.990      33.984     -95.020
  C      -14.633      34.170     -93.865
  O      -18.654      30.580     -93.594
  O      -18.440      32.210     -95.565
  H      -17.887      37.408     -91.706
  H      -19.261      30.172     -94.242
  H      -14.685      36.953     -96.330
  H      -13.448      33.079     -95.261
  H      -14.620      33.387     -93.109
  H      -15.608      36.388     -91.801
  H      -17.908      35.059     -93.301
  H      -19.111      34.657     -91.243
  H      -16.971      33.540     -89.946
  H      -16.531      31.872     -91.819
  H      -18.219      32.014     -91.362
  P      -19.057      35.907     -88.947
  C      -17.228      36.195     -87.163
  O      -18.442      36.696     -87.694
  O      -19.708      34.599     -88.635
  O      -20.105      36.967     -89.548
  H      -20.968      36.852     -89.115
  H      -16.667      37.026     -86.725
  H      -16.614      35.724     -87.939
  H      -17.449      35.461     -86.383
  H      -15.239      29.575     -95.218
  H      -16.641      30.008     -96.166
  H      -16.837      29.136     -94.664

 3  4  5  6  7  8  9  10  11  12  13  23  28  29  30  31  32 0
 6-311+G(2d,p)
 ****
 33  34 0
 6-311+G(2d,p)
 ****
 1  2  14  15  16  17  18  19  20  21  22  24  25  26  27 0
 3-21G
 ****
 35  36  37  38  39  40  41  42  43  44  45 0
 3-21G
 ****


