%nproc=1
%NoSave
%Mem=1900MB
#P OB98/GEN NMR

erre ene a

0 1
  C      242.720    -118.748     -19.576
  O      243.072    -120.132     -19.502
  P      241.876    -121.204     -19.555
  C      239.949    -121.851     -17.908
  O      241.150    -121.126     -18.124
  C      239.589    -121.874     -16.418
  O      240.626    -122.576     -15.670
  C      239.416    -120.485     -15.784
  O      238.342    -120.592     -14.837
  C      240.732    -120.270     -15.065
  O      240.622    -119.307     -14.025
  C      241.038    -121.697     -14.597
  N      242.444    -121.894     -14.252
  C      242.742    -122.058     -12.903
  O      241.897    -121.968     -12.014
  N      244.061    -122.286     -12.609
  C      245.094    -122.284     -13.503
  O      246.258    -122.494     -13.183
  C      244.728    -121.992     -14.897
  C      243.443    -121.812     -15.199
  O      242.681    -122.582     -19.519
  O      240.984    -121.019     -20.740
  H      243.471    -122.556     -18.951
  H      240.151    -119.709     -13.268
  H      244.297    -122.439     -11.636
  H      245.530    -121.926     -15.626
  H      243.143    -121.570     -16.210
  H      240.427    -121.950     -13.720
  H      241.495    -119.927     -15.778
  H      239.183    -119.708     -16.521
  H      238.661    -122.453     -16.303
  H      240.069    -122.881     -18.257
  H      239.146    -121.404     -18.503
  P      236.849    -120.270     -15.342
  C      235.457    -118.082     -15.724
  O      236.658    -118.682     -15.281
  O      236.005    -120.780     -14.071
  O      236.445    -120.954     -16.610
  H      236.365    -120.461     -13.227
  H      235.440    -117.042     -15.385
  H      234.588    -118.595     -15.310
  H      235.415    -118.096     -16.815
  H      243.607    -118.151     -19.530
  H      242.079    -118.499     -18.756
  H      242.210    -118.558     -20.497

 3  4  5  6  7  8  9  10  11  12  13  24  28  29  30  31  32 0
 6-311+G(2d,p)
 ****
 33  34 0
 6-311+G(2d,p)
 ****
 1  2  14  15  16  17  18  19  20  21  22  23  25  26  27 0
 3-21G
 ****
 35  36  37  38  39  40  41  42  43  44  45 0
 3-21G
 ****


