%nproc=1
%NoSave
%Mem=1900MB
#P OB98/GEN NMR

erre ene a

0 1
  C     -427.167     927.184     210.889
  O     -427.153     928.573     210.548
  H     -427.775     927.059     211.780
  H     -426.153     926.849     211.101
  H     -427.606     926.616     210.075
  P     -426.269     928.984     209.269
  C     -424.115     928.328     210.570
  O     -424.929     928.108     209.421
  C     -422.633     928.230     210.215
  O     -422.211     926.841     210.241
  C     -422.274     928.723     208.841
  O     -422.114     930.158     208.857
  C     -420.960     928.026     208.580
  O     -419.885     928.735     209.244
  C     -421.176     926.661     209.250
  N     -419.609     922.544     206.592
  C     -418.920     923.512     207.255
  N     -419.391     924.584     207.882
  C     -420.750     924.642     207.822
  C     -421.591     923.731     207.174
  C     -420.963     922.650     206.528
  N     -421.677     921.664     205.878
  N     -422.901     924.125     207.307
  C     -422.873     925.199     208.049
  N     -421.599     925.576     208.365
  O     -426.086     930.434     209.062
  O     -427.048     928.222     208.101
  H     -419.928     929.658     208.954
  H     -427.332     927.337     208.394
  H     -417.844     923.367     207.265
  H     -423.741     925.741     208.418
  H     -420.282     926.310     209.775
  H     -420.692     927.998     207.513
  H     -423.014     928.436     208.067
  H     -422.061     928.758     210.977
  H     -424.357     927.617     211.353
  H     -421.146     921.033     205.314
  H     -422.657     921.814     205.744
  H     -424.337     929.329     210.928
  P     -422.115     931.020     207.508
  C     -419.930     930.404     206.328
  O     -421.328     930.137     206.436
  O     -421.644     932.426     207.679
  O     -423.638     930.931     206.999
  H     -423.810     931.652     206.332
  H     -419.501     929.763     205.587
  H     -419.459     930.224     207.272
  H     -419.783     931.425     206.044

 6  7  8  9  10  11  12  13  14  15  25  28  32  33  34  35 0
 6-311+G(2d,p)
 ****
 36  39  40 0
 6-311+G(2d,p)
 ****
 1  2  3  4  5  16  17  18  19  20  21  22  23  24 0
 3-21G
 ****
 26  27  29  30  31  37  38  41  42  43  44  45  46  47 0
 3-21G
 ****
 48 0
 3-21G
 ****


