%nproc=1
%NoSave
%Mem=1900MB
#P OB98/GEN NMR

erre ene a

0 1
  C       85.996     -33.493    -234.255
  O       85.006     -32.497    -234.079
  H       86.837     -33.063    -234.809
  H       85.586     -34.328    -234.830
  H       86.357     -33.850    -233.285
  P       83.800     -32.857    -233.091
  C       82.357     -34.041    -234.939
  O       83.053     -34.147    -233.703
  C       81.004     -34.737    -234.840
  O       81.166     -36.140    -234.556
  C       80.127     -34.236    -233.705
  O       79.591     -32.954    -233.952
  C       79.076     -35.339    -233.655
  O       78.028     -35.115    -234.607
  C       79.896     -36.595    -234.025
  N       80.054     -37.490    -232.896
  C       78.928     -38.258    -232.574
  O       77.898     -38.160    -233.248
  N       78.981     -39.083    -231.483
  C       80.056     -39.122    -230.754
  N       80.032     -39.932    -229.666
  C       81.268     -38.330    -231.057
  C       81.201     -37.543    -232.133
  O       82.763     -31.671    -233.367
  O       84.186     -33.009    -231.660
  H       77.383     -35.843    -234.483
  H       82.588     -31.514    -234.312
  H       82.140     -38.406    -230.428
  H       82.039     -36.928    -232.428
  H       79.404     -37.150    -234.839
  H       78.601     -35.396    -232.669
  H       80.685     -34.257    -232.756
  H       80.497     -34.637    -235.811
  H       79.165     -40.414    -229.463
  H       82.951     -34.477    -235.752
  H       80.778     -39.983    -228.987
  H       82.228     -32.980    -235.158
  P       79.462     -31.862    -232.787
  C       76.886     -31.941    -232.731
  O       78.089     -32.180    -232.012
  O       79.609     -30.446    -233.220
  O       80.562     -32.340    -231.723
  H       80.426     -33.237    -231.368
  H       76.047     -32.188    -232.115
  H       76.871     -32.547    -233.613
  H       76.834     -30.908    -233.006

 6  7  8  9  10  11  12  13  14  15  16  26  30  31  32  33  35 0
 6-311+G(2d,p)
 ****
 37  38 0
 6-311+G(2d,p)
 ****
 1  2  3  4  5  17  18  19  20  21  22  23  24  25 0
 3-21G
 ****
 27  28  29  34  36  39  40  41  42  43  44  45  46 0
 3-21G
 ****


