%nproc=1
%NoSave
%Mem=1900MB
#P OB98/GEN NMR

erre ene a

0 1
  C      -22.622     -34.091      31.878
  O      -24.003     -34.402      32.009
  P      -24.388     -35.790      32.722
  C      -26.679     -34.770      33.397
  O      -25.991     -35.832      32.745
  C      -28.175     -34.844      33.110
  O      -28.682     -36.151      33.445
  C      -29.021     -33.860      33.904
  O      -29.028     -32.567      33.324
  C      -30.395     -34.501      33.786
  O      -30.967     -34.197      32.501
  C      -30.060     -35.994      33.876
  N      -33.354     -38.048      37.202
  C      -33.525     -37.542      35.963
  N      -32.598     -37.002      35.144
  C      -31.394     -36.979      35.739
  C      -31.077     -37.424      37.012
  C      -32.120     -37.992      37.759
  N      -31.937     -38.534      39.011
  N      -29.738     -37.231      37.272
  C      -29.252     -36.691      36.175
  N      -30.212     -36.527      35.216
  O      -24.003     -35.526      34.254
  O      -23.706     -36.994      32.170
  H      -31.754     -34.766      32.400
  H      -23.845     -36.376      34.709
  H      -34.538     -37.585      35.573
  H      -28.217     -36.412      36.028
  H      -30.680     -36.601      33.208
  H      -31.098     -34.141      34.543
  H      -28.718     -33.835      34.958
  H      -28.319     -34.692      32.032
  H      -26.292     -33.815      33.030
  H      -32.687     -39.083      39.401
  H      -30.987     -38.671      39.336
  H      -26.493     -34.833      34.474
  P      -28.776     -31.328      34.315
  C      -28.368     -29.862      32.210
  O      -29.056     -30.020      33.435
  O      -27.189     -31.335      34.507
  O      -29.508     -31.425      35.611
  H      -26.947     -30.921      35.357
  H      -28.888     -29.110      31.610
  H      -28.342     -30.799      31.647
  H      -27.348     -29.517      32.400
  H      -22.514     -33.145      31.389
  H      -22.139     -34.850      31.298
  H      -22.173     -34.044      32.848

 3  4  5  6  7  8  9  10  11  12  22  25  29  30  31  32 0
 6-311+G(2d,p)
 ****
 33  36  37 0
 6-311+G(2d,p)
 ****
 1  2  13  14  15  16  17  18  19  20  21  23  24  26 0
 3-21G
 ****
 27  28  34  35  38  39  40  41  42  43  44  45  46  47  48 0
 3-21G
 ****


