%nproc=1
%NoSave
%Mem=1900MB
#P OB98/GEN NMR

erre ene a

0 1
  C      500.979     472.334     -60.720
  O      500.062     473.406     -60.826
  H      501.989     472.740     -60.671
  H      500.906     471.684     -61.595
  H      500.788     471.758     -59.811
  P      498.497     473.061     -60.920
  C      497.350     471.123     -62.184
  O      498.328     472.157     -62.236
  C      497.347     470.341     -63.490
  O      498.605     469.658     -63.666
  C      496.261     469.270     -63.569
  O      495.016     469.850     -63.923
  C      496.834     468.366     -64.646
  O      496.635     468.976     -65.940
  C      498.333     468.370     -64.289
  N      498.989     463.373     -63.679
  C      498.491     464.078     -64.764
  N      498.073     463.348     -65.818
  N      498.396     465.384     -64.802
  C      498.792     465.983     -63.651
  C      499.285     465.385     -62.507
  C      499.438     463.956     -62.501
  O      499.888     463.286     -61.564
  N      499.511     466.315     -61.519
  C      499.192     467.471     -62.078
  N      498.738     467.320     -63.367
  O      497.561     474.230     -60.869
  O      498.253     472.035     -59.718
  H      495.673     469.059     -66.064
  H      497.970     472.498     -58.909
  H      499.018     462.365     -63.712
  H      499.284     468.438     -61.597
  H      498.973     468.287     -65.179
  H      496.371     467.382     -64.678
  H      497.854     462.365     -65.727
  H      496.190     468.690     -62.635
  H      497.657     463.845     -66.597
  H      497.250     471.057     -64.314
  H      496.376     471.604     -62.022
  H      497.551     470.447     -61.343
  P      493.639     469.036     -63.746
  C      493.027     466.637     -64.486
  O      493.736     467.827     -64.796
  O      492.403     469.858     -63.866
  O      493.785     468.290     -62.343
  H      493.477     468.829     -61.569
  H      493.178     465.919     -65.265
  H      491.983     466.856     -64.400
  H      493.386     466.239     -63.560

 6  7  8  9  10  11  12  13  14  15  26  29  33  34 0
 6-311+G(2d,p)
 ****
 36  38  39  40  41 0
 6-311+G(2d,p)
 ****
 1  2  3  4  5  16  17  18  19  20  21  22  23  24  25 0
 3-21G
 ****
 27  28  30  31  32  35  37  42  43  44  45  46  47 0
 3-21G
 ****
 48  49 0
 3-21G
 ****


