%nproc=1
%NoSave
%Mem=1900MB
#P OB98/GEN NMR

erre ene a

0 1
  C      -27.837      54.127      44.586
  O      -27.999      54.440      43.213
  P      -29.156      55.440      42.733
  C      -28.494      56.060      40.328
  O      -29.310      55.233      41.148
  C      -28.374      55.474      38.922
  O      -27.511      54.314      38.973
  C      -29.708      55.027      38.336
  O      -29.706      55.288      36.930
  C      -29.724      53.522      38.541
  O      -30.562      52.873      37.571
  C      -28.233      53.189      38.437
  N      -27.323      48.142      38.215
  C      -27.628      49.042      37.255
  N      -27.882      50.362      37.388
  C      -27.740      50.742      38.668
  C      -27.428      49.940      39.755
  C      -27.217      48.575      39.492
  N      -26.893      47.661      40.471
  N      -27.401      50.682      40.919
  C      -27.671      51.911      40.536
  N      -27.872      52.001      39.185
  O      -28.982      56.856      43.158
  O      -30.501      54.805      43.313
  H      -31.489      52.999      37.862
  H      -31.106      55.510      43.616
  H      -27.679      48.649      36.244
  H      -27.743      52.764      41.194
  H      -27.922      53.050      37.394
  H      -30.120      53.292      39.537
  H      -30.567      55.519      38.806
  H      -27.892      56.215      38.273
  H      -27.499      56.119      40.778
  H      -26.640      46.733      40.172
  H      -26.644      48.012      41.386
  H      -28.919      57.069      40.292
  P      -30.716      56.438      36.427
  C      -29.692      57.157      34.145
  O      -30.641      56.372      34.828
  O      -30.431      57.754      37.070
  O      -32.132      55.796      36.810
  H      -32.084      54.816      36.854
  H      -29.822      57.007      33.070
  H      -28.679      56.849      34.417
  H      -29.834      58.217      34.374
  H      -27.018      53.449      44.703
  H      -28.732      53.673      44.956
  H      -27.639      55.024      45.135

 3  4  5  6  7  8  9  10  11  12  22  25  29  30  31  32 0
 6-311+G(2d,p)
 ****
 33  36  37 0
 6-311+G(2d,p)
 ****
 1  2  13  14  15  16  17  18  19  20  21  23  24  26 0
 3-21G
 ****
 27  28  34  35  38  39  40  41  42  43  44  45  46  47  48 0
 3-21G
 ****


