%nproc=1
%NoSave
%Mem=1900MB
#P OB98/GEN NMR

erre ene a

0 1
  C      -37.858      23.744      73.966
  O      -37.527      22.417      74.365
  P      -37.268      21.336      73.209
  C      -35.501      19.912      74.527
  O      -36.771      19.981      73.902
  C      -34.964      18.470      74.534
  O      -35.740      17.698      75.490
  C      -35.089      17.719      73.212
  O      -34.198      16.596      73.235
  C      -36.521      17.226      73.269
  O      -36.749      16.162      72.349
  C      -36.690      16.868      74.765
  N      -38.057      17.096      75.278
  C      -38.796      15.994      75.707
  O      -38.382      14.833      75.685
  N      -40.071      16.254      76.139
  C      -40.654      17.485      76.221
  O      -41.828      17.653      76.533
  C      -39.785      18.624      75.890
  C      -38.555      18.382      75.431
  O      -35.965      21.899      72.462
  O      -38.419      21.164      72.275
  H      -35.954      15.576      72.399
  H      -36.215      22.291      71.602
  H      -40.642      15.457      76.388
  H      -40.190      19.620      76.009
  H      -37.905      19.214      75.164
  H      -36.443      15.816      74.948
  H      -37.202      18.041      73.002
  H      -34.899      18.326      72.322
  H      -33.926      18.475      74.880
  H      -35.568      20.304      75.546
  H      -34.794      20.560      73.992
  P      -33.310      16.313      71.934
  C      -31.281      15.436      73.248
  O      -32.308      15.123      72.324
  O      -32.679      17.511      71.299
  O      -34.343      15.588      70.939
  H      -34.008      15.637      70.028
  H      -31.026      14.533      73.810
  H      -31.597      16.214      73.953
  H      -30.396      15.781      72.705
  H      -38.002      24.352      74.835
  H      -38.758      23.729      73.388
  H      -37.062      24.148      73.376

 3  4  5  6  7  8  9  10  11  12  13  23  28  29  30  31  32 0
 6-311+G(2d,p)
 ****
 33  34 0
 6-311+G(2d,p)
 ****
 1  2  14  15  16  17  18  19  20  21  22  24  25  26  27 0
 3-21G
 ****
 35  36  37  38  39  40  41  42  43  44  45 0
 3-21G
 ****


