%nproc=1
%NoSave
%Mem=1900MB
#P OB98/GEN NMR

erre ene a

0 1
  C     -881.274    -663.369    -892.390
  O     -881.618    -664.098    -893.540
  H     -880.502    -663.914    -891.840
  H     -882.158    -663.265    -891.740
  H     -880.881    -662.378    -892.640
  P     -882.606    -663.426    -894.620
  C     -885.138    -662.975    -894.750
  O     -884.096    -663.683    -894.110
  C     -886.268    -663.944    -895.140
  O     -886.921    -664.408    -893.940
  C     -887.392    -663.294    -895.970
  O     -886.987    -663.107    -897.310
  C     -888.520    -664.291    -895.750
  O     -888.366    -665.414    -896.640
  C     -888.307    -664.699    -894.290
  N     -889.231    -664.051    -893.360
  C     -890.299    -664.814    -892.910
  O     -890.460    -666.009    -893.220
  N     -891.179    -664.157    -892.100
  C     -891.215    -662.821    -891.870
  O     -892.164    -662.238    -891.360
  C     -890.034    -662.072    -892.340
  C     -889.109    -662.701    -893.050
  O     -882.368    -663.805    -896.050
  O     -882.405    -661.849    -894.390
  H     -881.828    -661.487    -895.090
  H     -889.142    -665.983    -896.490
  H     -891.997    -664.709    -891.800
  H     -889.978    -661.017    -892.080
  H     -888.268    -662.138    -893.420
  H     -888.421    -665.808    -894.180
  H     -889.480    -663.844    -895.940
  H     -887.658    -662.318    -895.530
  H     -885.844    -664.802    -895.660
  H     -884.737    -662.517    -895.690
  H     -885.508    -662.176    -894.110
  P     -887.675    -661.971    -898.220
  C     -890.028    -661.310    -898.990
  O     -889.239    -662.277    -898.310
  O     -887.008    -661.716    -899.530
  O     -887.613    -660.660    -897.260
  H     -887.262    -659.912    -897.810
  H     -891.052    -661.620    -898.987
  H     -889.686    -661.217    -900.000
  H     -889.939    -660.365    -898.495

 6  7  8  9  10  11  12  13  14  15  16  27  31  32  33  34  35 0
 6-311+G(2d,p)
 ****
 36  37 0
 6-311+G(2d,p)
 ****
 1  2  3  4  5  17  18  19  20  21  22  23  24  25 0
 3-21G
 ****
 26  28  29  30  38  39  40  41  42  43  44  45 0
 3-21G
 ****


