%nproc=1
%NoSave
%Mem=1900MB
#P OB98/GEN NMR

erre ene a

0 1
  C     -274.842    -324.601     280.544
  O     -274.762    -325.641     281.494
  H     -274.102    -323.837     280.794
  H     -275.835    -324.145     280.573
  H     -274.636    -324.978     279.539
  P     -275.653    -326.950     281.234
  C     -277.064    -326.592     283.385
  O     -276.177    -327.441     282.672
  C     -276.758    -326.643     284.883
  O     -275.449    -326.059     285.113
  C     -277.771    -325.880     285.742
  O     -277.986    -326.612     286.951
  C     -277.062    -324.576     286.060
  O     -277.538    -323.971     287.262
  C     -275.595    -325.023     286.101
  N     -274.689    -323.904     285.854
  C     -274.094    -323.318     286.973
  O     -274.349    -323.739     288.104
  N     -273.272    -322.233     286.797
  C     -273.125    -321.726     285.615
  N     -272.321    -320.632     285.509
  C     -273.789    -322.269     284.411
  C     -274.540    -323.352     284.602
  O     -274.574    -328.062     280.839
  O     -276.722    -326.802     280.204
  H     -278.518    -323.924     287.216
  H     -274.946    -328.708     280.210
  H     -273.656    -321.795     283.452
  H     -275.071    -323.817     283.781
  H     -275.353    -325.461     287.079
  H     -277.219    -323.864     285.241
  H     -278.728    -325.718     285.241
  H     -276.698    -327.693     285.190
  H     -271.902    -320.278     286.359
  H     -278.091    -326.932     283.221
  H     -272.173    -320.127     284.645
  H     -276.967    -325.568     283.010
  P     -279.482    -327.116     287.231
  C     -279.887    -326.168     289.617
  O     -279.655    -327.318     288.814
  O     -279.484    -328.609     286.656
  O     -280.529    -326.272     286.583
  H     -280.007    -328.649     285.834
  H     -279.980    -326.461     290.642
  H     -280.789    -325.688     289.300
  H     -279.066    -325.489     289.514

 6  7  8  9  10  11  12  13  14  15  16  26  30  31  32  33  35 0
 6-311+G(2d,p)
 ****
 37  38 0
 6-311+G(2d,p)
 ****
 1  2  3  4  5  17  18  19  20  21  22  23  24  25 0
 3-21G
 ****
 27  28  29  34  36  39  40  41  42  43  44  45  46 0
 3-21G
 ****


