%nproc=1
%NoSave
%Mem=1900MB
#P OB98/GEN NMR

erre ene a

0 1
  C      -78.239     327.888     322.598
  O      -79.627     327.643     322.750
  H      -78.115     328.816     322.031
  H      -77.775     327.073     322.042
  H      -77.756     328.004     323.572
  P      -80.099     326.418     323.669
  C      -79.765     326.811     326.199
  O      -80.600     327.034     325.067
  C      -80.072     327.829     327.306
  O      -80.060     329.163     326.729
  C      -81.438     327.621     327.972
  O      -81.332     327.918     329.370
  C      -82.323     328.655     327.295
  O      -83.423     329.049     328.114
  C      -81.330     329.781     327.019
  N      -85.061     332.724     325.275
  C      -84.909     332.110     326.504
  N      -85.912     332.283     327.397
  N      -83.878     331.377     326.826
  C      -82.936     331.311     325.848
  C      -82.964     331.877     324.593
  C      -84.132     332.663     324.235
  O      -84.326     333.220     323.162
  N      -81.837     331.563     323.872
  C      -81.128     330.806     324.695
  N      -81.757     330.613     325.895
  O      -79.106     325.302     323.797
  O      -81.459     325.916     322.988
  H      -83.919     329.737     327.615
  H      -81.320     325.085     322.500
  H      -85.883     333.265     325.074
  H      -80.161     330.370     324.465
  H      -81.205     330.450     327.878
  H      -82.723     328.244     326.357
  H      -86.730     332.846     327.222
  H      -81.815     326.608     327.837
  H      -85.817     331.862     328.314
  H      -79.264     327.793     328.048
  H      -78.720     326.919     325.878
  H      -79.922     325.795     326.572
  P      -81.901     326.861     330.435
  C      -79.499     326.016     330.787
  O      -80.706     326.421     331.420
  O      -82.692     325.731     329.862
  O      -82.820     327.777     331.389
  H      -83.589     327.251     331.685
  H      -78.779     325.747     331.531
  H      -79.118     326.823     330.197
  H      -79.692     325.173     330.157

 6  7  8  9  10  11  12  13  14  15  26  29  33  34 0
 6-311+G(2d,p)
 ****
 36  38  39  40  41 0
 6-311+G(2d,p)
 ****
 1  2  3  4  5  16  17  18  19  20  21  22  23  24  25 0
 3-21G
 ****
 27  28  30  31  32  35  37  42  43  44  45  46  47 0
 3-21G
 ****
 48  49 0
 3-21G
 ****


