%nproc=1
%NoSave
%Mem=1900MB
#P OB98/GEN NMR

erre ene a

0 1
  C      331.221    -676.975     254.269
  O      330.681    -677.736     253.210
  H      331.672    -677.657     254.998
  H      330.434    -676.399     254.768
  H      331.993    -676.301     253.891
  P      329.934    -676.922     252.048
  C      332.244    -676.711     250.925
  O      331.091    -676.019     251.389
  C      332.691    -676.151     249.568
  O      331.618    -676.350     248.616
  C      333.012    -674.655     249.603
  O      334.132    -674.394     248.755
  C      331.771    -674.009     249.016
  O      332.043    -672.739     248.428
  C      331.305    -675.075     248.020
  N      327.508    -671.811     247.040
  C      328.850    -671.641     247.124
  N      329.788    -672.576     247.375
  C      329.233    -673.791     247.500
  C      327.893    -674.115     247.442
  C      327.001    -673.053     247.208
  N      325.639    -673.206     247.148
  N      327.707    -675.475     247.663
  C      328.925    -675.956     247.835
  N      329.876    -674.974     247.760
  O      328.706    -676.186     252.461
  O      329.713    -678.058     250.943
  H      331.194    -672.293     248.242
  H      330.509    -678.607     250.832
  H      329.213    -670.629     246.974
  H      329.172    -676.997     248.026
  H      331.821    -675.004     247.057
  H      331.017    -673.859     249.805
  H      333.218    -674.296     250.615
  H      333.549    -676.737     249.213
  H      332.029    -677.781     250.825
  H      325.071    -672.391     246.957
  H      325.240    -674.131     247.250
  H      333.039    -676.584     251.666
  P      335.497    -673.892     249.436
  C      336.744    -675.715     248.093
  O      336.578    -675.079     249.364
  O      335.359    -673.231     250.765
  O      336.055    -672.857     248.348
  H      336.472    -672.103     248.802
  H      337.485    -676.483     248.172
  H      337.056    -674.991     247.370
  H      335.814    -676.147     247.786

 6  7  8  9  10  11  12  13  14  15  25  28  32  33  34  35 0
 6-311+G(2d,p)
 ****
 36  39  40 0
 6-311+G(2d,p)
 ****
 1  2  3  4  5  16  17  18  19  20  21  22  23  24 0
 3-21G
 ****
 26  27  29  30  31  37  38  41  42  43  44  45  46  47 0
 3-21G
 ****
 48 0
 3-21G
 ****


