%nproc=1
%NoSave
%Mem=1900MB
#P OB98/GEN NMR

erre ene a

0 1
  C       94.075     328.518      11.716
  O       94.687     327.625      12.623
  H       93.819     329.439      12.245
  H       93.156     328.070      11.330
  H       94.748     328.759      10.888
  P       95.496     326.387      12.003
  C       97.952     325.558      12.120
  O       97.043     326.619      12.369
  C       99.367     326.104      11.921
  O       99.391     326.897      10.696
  C       99.860     327.002      13.068
  O      101.263     326.774      13.263
  C       99.682     328.398      12.501
  O      100.531     329.351      13.132
  C      100.010     328.152      11.032
  N      101.527     331.649       7.769
  C      102.201     330.570       8.305
  N      103.501     330.429       7.972
  N      101.646     329.701       9.109
  C      100.335     329.949       9.346
  C       99.558     330.980       8.881
  C      100.187     331.948       8.005
  O       99.650     332.935       7.516
  N       98.290     330.913       9.404
  C       98.311     329.855      10.197
  N       99.530     329.238      10.196
  O       95.432     326.681      10.430
  O       94.956     325.038      12.339
  H      101.438     328.985      13.155
  H       94.684     326.197      10.033
  H      102.005     332.299       7.168
  H       97.484     329.510      10.801
  H      101.089     328.063      10.852
  H       98.642     328.723      12.625
  H      103.989     331.040       7.334
  H       99.327     326.852      14.012
  H      103.996     329.619       8.326
  H      100.050     325.259      11.770
  H       97.646     325.026      11.213
  H       97.929     324.858      12.962
  P      101.715     325.910      14.535
  C      100.967     323.463      15.012
  O      101.654     324.354      14.147
  O      100.486     326.083      15.546
  O      102.998     326.365      15.149
  H      100.813     326.097      16.465
  H      101.018     322.471      14.615
  H       99.943     323.763      15.093
  H      101.422     323.484      15.980

 6  7  8  9  10  11  12  13  14  15  26  29  33  34 0
 6-311+G(2d,p)
 ****
 36  38  39  40  41 0
 6-311+G(2d,p)
 ****
 1  2  3  4  5  16  17  18  19  20  21  22  23  24  25 0
 3-21G
 ****
 27  28  30  31  32  35  37  42  43  44  45  46  47 0
 3-21G
 ****
 48  49 0
 3-21G
 ****


