%nproc=1
%NoSave
%Mem=1900MB
#P OB98/GEN NMR

erre ene a

0 1
  C      -15.500     287.069     124.314
  O      -16.390     286.558     123.314
  P      -16.381     285.016     122.872
  C      -18.897     284.466     122.852
  O      -17.654     284.286     123.523
  C      -20.052     284.663     123.840
  O      -19.846     285.847     124.635
  C      -21.421     284.825     123.188
  O      -21.938     283.570     122.790
  C      -22.200     285.518     124.303
  O      -22.654     284.557     125.271
  C      -21.131     286.432     124.916
  N      -21.889     291.324     126.193
  C      -21.860     290.194     126.929
  N      -21.659     288.924     126.515
  C      -21.443     288.890     125.189
  C      -21.445     289.959     124.308
  C      -21.684     291.231     124.858
  N      -21.726     292.379     124.104
  N      -21.215     289.531     123.019
  C      -21.056     288.226     123.122
  N      -21.185     287.791     124.412
  O      -15.085     284.316     123.115
  O      -16.728     285.040     121.309
  H      -23.169     283.882     124.794
  H      -16.330     284.265     120.873
  H      -22.025     290.324     127.996
  H      -20.844     287.558     122.297
  H      -21.221     286.483     126.007
  H      -23.081     286.052     123.935
  H      -21.349     285.496     122.326
  H      -20.054     283.807     124.526
  H      -19.089     283.579     122.237
  H      -21.937     293.247     124.569
  H      -21.622     292.311     123.102
  H      -18.816     285.338     122.194
  P      -21.852     283.116     121.257
  C      -21.602     280.589     121.623
  O      -20.964     281.782     121.207
  O      -21.454     284.181     120.291
  O      -23.325     282.568     120.944
  H      -23.525     282.704     119.998
  H      -21.610     280.543     122.716
  H      -21.038     279.736     121.236
  H      -22.626     280.541     121.245
  H      -15.678     288.115     124.449
  H      -14.488     286.917     124.002
  H      -15.669     286.556     125.238

 3  4  5  6  7  8  9  10  11  12  22  25  29  30  31  32 0
 6-311+G(2d,p)
 ****
 33  36  37 0
 6-311+G(2d,p)
 ****
 1  2  13  14  15  16  17  18  19  20  21  23  24  26 0
 3-21G
 ****
 27  28  34  35  38  39  40  41  42  43  44  45  46  47  48 0
 3-21G
 ****


