%nproc=1
%NoSave
%Mem=1900MB
#P OB98/GEN NMR

erre ene a

0 1
  C      233.078      56.569      -8.564
  O      232.700      57.943      -8.494
  P      233.527      59.145      -9.145
  C      233.160      59.120     -11.741
  O      232.765      59.615     -10.470
  C      233.315      60.225     -12.799
  O      234.058      59.708     -13.936
  C      231.947      60.653     -13.335
  O      231.172      61.601     -12.625
  C      232.201      61.020     -14.789
  O      232.445      62.417     -14.968
  C      233.453      60.213     -15.144
  N      232.554      58.760     -19.966
  C      232.712      60.029     -19.455
  N      232.565      61.053     -20.322
  N      232.973      60.277     -18.199
  C      233.008      59.171     -17.424
  C      232.845      57.860     -17.811
  C      232.615      57.591     -19.216
  O      232.478      56.484     -19.723
  N      232.924      57.004     -16.740
  C      233.106      57.797     -15.704
  N      233.173      59.126     -16.068
  O      234.999      58.935      -9.250
  O      233.282      60.363      -8.115
  H      233.259      62.645     -14.486
  H      234.096      60.907      -8.126
  H      232.376      58.624     -20.949
  H      233.206      57.467     -14.679
  H      234.208      60.843     -15.628
  H      231.325      60.776     -15.406
  H      232.248      60.938     -21.274
  H      231.322      59.750     -13.368
  H      232.464      61.986     -19.916
  H      233.907      61.057     -12.410
  H      232.401      58.396     -12.051
  H      234.096      58.564     -11.650
  P      229.981      61.278     -11.607
  C      230.950      60.953      -9.259
  O      230.378      61.870     -10.176
  O      230.088      59.697     -11.374
  O      228.615      61.653     -12.089
  H      229.264      59.353     -10.982
  H      230.892      61.374      -8.251
  H      232.002      60.786      -9.512
  H      230.417      59.994      -9.276
  H      232.354      55.973      -8.048
  H      234.037      56.439      -8.108
  H      233.126      56.264      -9.589

 3  4  5  6  7  8  9  10  11  12  23  26  30  31 0
 6-311+G(2d,p)
 ****
 33  35  36  37  38 0
 6-311+G(2d,p)
 ****
 1  2  13  14  15  16  17  18  19  20  21  22  24  25 0
 3-21G
 ****
 27  28  29  32  34  39  40  41  42  43  44  45  46  47  48  49 0
 3-21G
 ****


