%nproc=1
%NoSave
%Mem=1900MB
#P OB98/GEN NMR

erre ene a

0 1
  C     -429.095     182.071     -78.063
  O     -428.051     183.013     -77.961
  H     -429.115     181.676     -79.084
  H     -430.057     182.552     -77.860
  H     -428.940     181.241     -77.368
  P     -427.734     183.609     -76.505
  C     -425.376     184.055     -77.501
  O     -426.421     184.525     -76.658
  C     -424.703     185.229     -78.218
  O     -425.591     185.705     -79.268
  C     -424.386     186.408     -77.296
  O     -423.129     186.973     -77.693
  C     -425.496     187.403     -77.587
  O     -425.121     188.751     -77.302
  C     -425.783     187.119     -79.070
  N     -427.135     187.538     -79.444
  C     -427.339     188.901     -79.647
  O     -426.398     189.696     -79.506
  N     -428.593     189.352     -79.955
  C     -429.591     188.518     -79.965
  N     -430.820     189.025     -80.244
  C     -429.437     187.074     -79.690
  C     -428.190     186.655     -79.444
  O     -427.200     182.337     -75.690
  O     -428.879     184.278     -75.825
  H     -424.257     188.927     -77.729
  H     -427.431     182.399     -74.744
  H     -430.295     186.421     -79.684
  H     -427.983     185.617     -79.221
  H     -425.065     187.647     -79.713
  H     -426.374     187.161     -76.979
  H     -424.346     186.137     -76.239
  H     -423.795     184.862     -78.712
  H     -430.887     190.023     -80.412
  H     -425.800     183.376     -78.251
  H     -431.669     188.481     -80.235
  H     -424.645     183.503     -76.902
  P     -421.875     186.679     -76.733
  C     -420.357     185.466     -78.457
  O     -420.559     186.612     -77.637
  O     -422.107     185.161     -76.277
  O     -421.793     187.601     -75.560
  H     -422.375     185.128     -75.339
  H     -419.439     185.571     -78.997
  H     -421.169     185.374     -79.148
  H     -420.312     184.591     -77.842

 6  7  8  9  10  11  12  13  14  15  16  26  30  31  32  33  35 0
 6-311+G(2d,p)
 ****
 37  38 0
 6-311+G(2d,p)
 ****
 1  2  3  4  5  17  18  19  20  21  22  23  24  25 0
 3-21G
 ****
 27  28  29  34  36  39  40  41  42  43  44  45  46 0
 3-21G
 ****


