%nproc=1
%NoSave
%Mem=1900MB
#P OB98/GEN NMR

erre ene a

0 1
  C     -320.624    -600.890    -357.499
  O     -320.138    -599.826    -356.711
  H     -321.286    -600.479    -358.269
  H     -321.188    -601.591    -356.885
  H     -319.794    -601.411    -357.991
  P     -319.185    -600.158    -355.464
  C     -319.505    -600.619    -352.943
  O     -320.135    -600.300    -354.176
  C     -320.412    -601.523    -352.107
  O     -321.605    -600.776    -351.772
  C     -320.838    -602.797    -352.861
  O     -320.572    -603.992    -352.130
  C     -322.282    -602.504    -353.256
  O     -323.082    -603.647    -353.436
  C     -322.759    -601.555    -352.146
  N     -323.863    -600.687    -352.546
  C     -325.098    -601.284    -352.776
  O     -325.339    -602.486    -352.649
  N     -326.109    -600.432    -353.160
  C     -325.996    -599.089    -353.346
  O     -326.940    -598.380    -353.689
  C     -324.664    -598.522    -353.116
  C     -323.670    -599.326    -352.737
  O     -318.019    -599.246    -355.280
  O     -318.710    -601.665    -355.727
  H     -323.077    -604.142    -352.590
  H     -317.785    -601.671    -356.033
  H     -327.007    -600.854    -353.309
  H     -324.539    -597.451    -353.270
  H     -322.674    -598.940    -352.559
  H     -323.088    -602.123    -351.271
  H     -322.276    -601.952    -354.214
  H     -320.242    -602.923    -353.773
  H     -319.903    -601.767    -351.163
  H     -319.313    -599.677    -352.411
  H     -318.553    -601.123    -353.138
  P     -319.799    -605.266    -352.704
  C     -320.293    -607.852    -352.799
  O     -320.790    -606.523    -352.680
  O     -318.421    -605.490    -352.166
  O     -319.660    -604.943    -354.280
  H     -318.819    -605.363    -354.570
  H     -321.109    -608.543    -352.760
  H     -319.617    -608.053    -351.994
  H     -319.779    -607.959    -353.732

 6  7  8  9  10  11  12  13  14  15  16  26  31  32  33  34  35 0
 6-311+G(2d,p)
 ****
 36  37 0
 6-311+G(2d,p)
 ****
 1  2  3  4  5  17  18  19  20  21  22  23  24  25 0
 3-21G
 ****
 27  28  29  30  38  39  40  41  42  43  44  45 0
 3-21G
 ****


