%nproc=1
%NoSave
%Mem=1900MB
#P OB98/GEN NMR

erre ene a

0 1
  C       -3.204    -502.063    -163.656
  O       -3.495    -501.697    -164.989
  H       -2.228    -501.653    -163.383
  H       -3.159    -503.153    -163.571
  H       -3.955    -501.668    -162.966
  P       -5.002    -501.925    -165.500
  C       -6.202    -503.575    -167.101
  O       -4.983    -503.213    -166.467
  C       -6.033    -504.904    -167.839
  O       -5.220    -504.686    -169.018
  C       -5.357    -506.005    -167.006
  O       -5.988    -507.257    -167.282
  C       -3.930    -506.011    -167.515
  O       -3.285    -507.269    -167.316
  C       -4.135    -505.641    -168.985
  N        0.698    -506.589    -170.081
  C       -0.288    -507.416    -169.580
  N        0.077    -508.691    -169.326
  N       -1.514    -507.032    -169.343
  C       -1.743    -505.733    -169.685
  C       -0.852    -504.804    -170.182
  C        0.508    -505.244    -170.410
  O        1.426    -504.548    -170.830
  N       -1.465    -503.591    -170.363
  C       -2.712    -503.782    -169.971
  N       -2.932    -505.074    -169.563
  O       -5.237    -500.696    -166.501
  O       -6.040    -501.965    -164.426
  H       -2.335    -507.145    -167.522
  H       -5.935    -500.116    -166.151
  H        1.632    -506.925    -170.235
  H       -3.490    -503.024    -169.964
  H       -4.415    -506.506    -169.591
  H       -3.345    -505.242    -166.999
  H        0.993    -509.073    -169.524
  H       -5.408    -505.811    -165.931
  H       -0.635    -509.339    -168.986
  H       -7.019    -505.232    -168.185
  H       -6.475    -502.790    -167.824
  H       -6.989    -503.656    -166.348
  P       -7.013    -507.821    -166.188
  C       -7.116    -509.867    -164.597
  O       -6.299    -509.030    -165.397
  O       -8.123    -508.565    -167.076
  O       -7.626    -506.768    -165.328
  H       -8.952    -508.049    -167.073
  H       -6.512    -510.620    -164.135
  H       -7.859    -510.333    -165.211
  H       -7.595    -509.281    -163.841

 6  7  8  9  10  11  12  13  14  15  26  29  33  34 0
 6-311+G(2d,p)
 ****
 36  38  39  40  41 0
 6-311+G(2d,p)
 ****
 1  2  3  4  5  16  17  18  19  20  21  22  23  24  25 0
 3-21G
 ****
 27  28  30  31  32  35  37  42  43  44  45  46  47 0
 3-21G
 ****
 48  49 0
 3-21G
 ****


