%nproc=1
%NoSave
%Mem=1900MB
#P OB98/GEN NMR

erre ene a

0 1
  C     -336.298      70.173    -381.410
  O     -335.572      71.254    -380.841
  P     -334.780      70.986    -379.472
  C     -335.347      71.085    -376.935
  O     -335.808      71.261    -378.268
  C     -336.511      71.174    -375.940
  O     -337.464      70.116    -376.241
  C     -336.096      71.012    -374.464
  O     -336.965      71.859    -373.700
  C     -336.394      69.544    -374.209
  O     -336.468      69.201    -372.829
  C     -337.682      69.378    -375.012
  N     -339.779      65.101    -373.140
  C     -339.680      66.350    -372.638
  N     -339.114      67.445    -373.198
  C     -338.620      67.155    -374.412
  C     -338.624      65.919    -375.047
  C     -339.245      64.857    -374.362
  N     -339.326      63.578    -374.879
  N     -337.997      65.998    -376.281
  C     -337.618      67.259    -376.380
  N     -337.994      68.002    -375.296
  O     -333.778      72.228    -379.387
  O     -334.063      69.671    -379.405
  H     -336.906      68.333    -372.731
  H     -332.906      71.951    -379.031
  H     -340.121      66.499    -371.655
  H     -337.060      67.677    -377.218
  H     -338.540      69.822    -374.497
  H     -335.583      68.938    -374.643
  H     -335.054      71.300    -374.265
  H     -337.017      72.133    -376.089
  H     -334.624      71.878    -376.693
  H     -339.606      62.853    -374.229
  H     -338.750      63.361    -375.686
  H     -334.825      70.119    -376.851
  P     -336.869      71.833    -372.091
  C     -337.539      70.101    -370.321
  O     -337.354      70.350    -371.700
  O     -338.155      72.711    -371.701
  O     -335.574      72.317    -371.519
  H     -338.949      72.395    -372.153
  H     -337.958      69.099    -370.201
  H     -338.235      70.834    -369.895
  H     -336.586      70.143    -369.799
  H     -336.771      70.497    -382.313
  H     -337.042      69.839    -380.717
  H     -335.627      69.368    -381.628

 3  4  5  6  7  8  9  10  11  12  22  25  29  30  31  32 0
 6-311+G(2d,p)
 ****
 33  36  37 0
 6-311+G(2d,p)
 ****
 1  2  13  14  15  16  17  18  19  20  21  23  24  26 0
 3-21G
 ****
 27  28  34  35  38  39  40  41  42  43  44  45  46  47  48 0
 3-21G
 ****


