%nproc=1
%NoSave
%Mem=1900MB
#P OB98/GEN NMR

erre ene a

0 1
  C     1809.447      60.185     172.480
  O     1810.262      59.414     173.376
  P     1809.707      59.196     174.862
  C     1809.923      56.597     174.729
  O     1809.063      57.728     174.877
  C     1809.914      55.748     175.996
  O     1808.595      55.284     176.265
  C     1810.777      54.514     175.905
  O     1812.148      54.845     176.068
  C     1810.214      53.675     177.045
  O     1810.842      53.979     178.290
  C     1808.714      54.064     177.042
  N     1807.854      53.023     176.552
  C     1807.973      51.781     177.185
  O     1808.781      51.633     178.082
  N     1807.181      50.740     176.735
  C     1806.366      50.919     175.742
  N     1805.616      49.863     175.364
  C     1806.233      52.214     175.040
  C     1806.986      53.210     175.480
  O     1808.457      60.169     174.934
  O     1810.719      59.477     175.944
  H     1810.365      53.466     178.969
  H     1808.288      60.461     175.858
  H     1805.521      52.316     174.234
  H     1806.963      54.190     175.023
  H     1808.404      54.313     178.061
  H     1810.378      52.594     176.866
  H     1810.618      53.999     174.950
  H     1810.234      56.387     176.835
  H     1805.738      48.990     175.859
  H     1810.944      56.967     174.529
  H     1804.924      49.916     174.617
  H     1809.594      56.019     173.866
  P     1813.234      53.705     175.775
  C     1813.801      54.931     173.582
  O     1813.400      53.704     174.170
  O     1812.393      52.363     176.027
  O     1814.494      53.739     176.572
  H     1812.991      51.596     175.960
  H     1814.024      54.753     172.529
  H     1814.684      55.331     174.078
  H     1812.983      55.659     173.647
  H     1809.930      60.254     171.528
  H     1809.307      61.167     172.881
  H     1808.496      59.709     172.364

 3  4  5  6  7  8  9  10  11  12  13  21  23  27  28  29  30  32 0
 6-311+G(2d,p)
 ****
 34  35 0
 6-311+G(2d,p)
 ****
 1  2  14  15  16  17  18  19  20  22  24  25  26 0
 3-21G
 ****
 31  33  36  37  38  39  40  41  42  43  44  45  46 0
 3-21G
 ****


