%nproc=1
%NoSave
%Mem=1900MB
#P OB98/GEN NMR

erre ene a

0 1
  C     1134.882    -131.643     656.401
  O     1134.782    -131.230     657.747
  H     1135.462    -130.898     655.849
  H     1133.886    -131.715     655.957
  H     1135.392    -132.607     656.332
  P     1134.178    -132.278     658.798
  C     1136.070    -132.896     660.471
  O     1135.400    -133.217     659.260
  C     1137.285    -132.014     660.176
  O     1136.812    -130.726     659.682
  C     1138.169    -131.738     661.401
  O     1139.528    -131.687     660.970
  C     1137.729    -130.350     661.833
  O     1138.707    -129.651     662.589
  C     1137.443    -129.701     660.472
  N     1136.584    -128.524     660.585
  C     1137.159    -127.368     661.115
  O     1138.345    -127.246     661.412
  N     1136.298    -126.314     661.297
  C     1134.961    -126.316     661.034
  O     1134.240    -125.344     661.242
  C     1134.416    -127.559     660.484
  C     1135.238    -128.589     660.290
  O     1133.296    -133.242     657.874
  O     1133.388    -131.687     659.919
  H     1132.388    -132.907     657.796
  H     1138.465    -128.703     662.582
  H     1136.698    -125.476     661.681
  H     1133.355    -127.600     660.269
  H     1134.861    -129.535     659.908
  H     1138.378    -129.431     659.975
  H     1136.813    -130.415     662.435
  H     1138.058    -132.473     662.207
  H     1137.862    -132.468     659.368
  H     1136.411    -133.822     660.949
  H     1135.373    -132.383     661.142
  P     1140.217    -133.074     660.543
  C     1141.562    -132.412     658.395
  O     1140.391    -132.995     658.949
  O     1139.009    -134.101     660.761
  O     1141.454    -133.380     661.317
  H     1138.144    -133.713     660.546
  H     1141.506    -132.445     657.327
  H     1142.422    -132.957     658.724
  H     1141.640    -131.394     658.716

 6  7  8  9  10  11  12  13  14  15  16  27  31  32  33  34  35 0
 6-311+G(2d,p)
 ****
 36  37 0
 6-311+G(2d,p)
 ****
 1  2  3  4  5  17  18  19  20  21  22  23  24  25 0
 3-21G
 ****
 26  28  29  30  38  39  40  41  42  43  44  45 0
 3-21G
 ****


