%nproc=1
%NoSave
%Mem=1900MB
#P OB98/GEN NMR

erre ene a

0 1
  C      -18.132      46.104    -245.277
  O      -17.681      47.435    -245.138
  H      -19.049      45.985    -244.695
  H      -17.382      45.408    -244.893
  H      -18.350      45.875    -246.323
  P      -16.440      47.926    -246.026
  C      -16.882      50.260    -247.022
  O      -17.037      48.856    -247.187
  C      -17.201      50.975    -248.333
  O      -18.507      50.579    -248.806
  C      -17.256      52.492    -248.210
  O      -15.962      53.055    -248.119
  C      -18.030      52.852    -249.465
  O      -17.171      52.887    -250.612
  C      -19.036      51.685    -249.573
  N      -20.369      52.064    -249.103
  C      -21.399      51.960    -250.032
  O      -21.238      51.566    -251.185
  N      -22.628      52.387    -249.606
  C      -22.884      53.022    -248.424
  O      -23.936      53.606    -248.188
  C      -21.773      53.047    -247.461
  C      -20.581      52.586    -247.843
  O      -15.511      46.853    -246.486
  O      -15.692      48.977    -245.076
  H      -14.906      48.553    -244.685
  H      -16.551      53.629    -250.459
  H      -23.373      52.354    -250.288
  H      -21.957      53.478    -246.484
  H      -19.737      52.625    -247.161
  H      -19.115      51.342    -250.612
  H      -18.505      53.830    -249.376
  H      -17.852      52.771    -247.333
  H      -16.459      50.671    -249.083
  H      -15.846      50.469    -246.736
  H      -17.548      50.601    -246.222
  P      -15.569      53.981    -246.873
  C      -13.674      52.812    -245.591
  O      -15.078      53.034    -245.676
  O      -16.593      54.996    -246.486
  O      -14.212      54.697    -247.336
  H      -14.296      55.659    -247.185
  H      -13.464      52.170    -244.761
  H      -13.173      53.747    -245.454
  H      -13.330      52.352    -246.494

 6  7  8  9  10  11  12  13  14  15  16  27  31  32  33  34  35 0
 6-311+G(2d,p)
 ****
 36  37 0
 6-311+G(2d,p)
 ****
 1  2  3  4  5  17  18  19  20  21  22  23  24  25 0
 3-21G
 ****
 26  28  29  30  38  39  40  41  42  43  44  45 0
 3-21G
 ****


