%nproc=1
%NoSave
%Mem=1900MB
#P OB98/GEN NMR

erre ene a

0 1
  C     -127.911      14.551    -219.171
  O     -129.265      14.873    -218.926
  P     -130.213      15.566    -220.011
  C     -132.771      15.863    -220.380
  O     -131.740      15.219    -219.639
  C     -134.108      15.916    -219.629
  O     -134.502      14.576    -219.259
  C     -133.951      16.698    -218.321
  O     -134.025      18.110    -218.323
  C     -134.880      16.006    -217.330
  O     -136.133      16.679    -217.193
  C     -135.080      14.616    -217.942
  N     -134.898      12.349    -213.407
  C     -135.829      13.245    -213.893
  N     -136.708      13.735    -212.993
  N     -135.874      13.637    -215.144
  C     -134.870      13.133    -215.904
  C     -133.900      12.227    -215.536
  C     -133.888      11.772    -214.165
  O     -133.028      11.042    -213.672
  N     -133.007      12.000    -216.551
  C     -133.408      12.798    -217.518
  N     -134.511      13.533    -217.159
  O     -129.784      15.464    -221.441
  O     -130.103      17.118    -219.581
  H     -135.956      17.592    -216.907
  H     -130.156      17.650    -220.398
  H     -134.863      12.144    -212.415
  H     -132.921      12.902    -218.484
  H     -136.150      14.398    -218.062
  H     -134.432      15.985    -216.330
  H     -136.610      13.568    -212.000
  H     -132.939      16.488    -217.950
  H     -137.293      14.516    -213.272
  H     -134.908      16.293    -220.273
  H     -132.880      15.322    -221.328
  H     -132.458      16.883    -220.629
  P     -133.987      19.064    -217.040
  C     -132.839      21.233    -216.303
  O     -133.026      20.304    -217.359
  O     -133.150      18.239    -215.952
  O     -135.329      19.437    -216.490
  H     -133.364      18.560    -215.054
  H     -132.437      22.164    -216.711
  H     -132.128      20.823    -215.579
  H     -133.786      21.450    -215.799
  H     -127.489      14.098    -218.299
  H     -127.369      15.443    -219.407
  H     -127.850      13.869    -219.993

 3  4  5  6  7  8  9  10  11  12  23  26  30  31 0
 6-311+G(2d,p)
 ****
 33  35  36  37  38 0
 6-311+G(2d,p)
 ****
 1  2  13  14  15  16  17  18  19  20  21  22  24  25 0
 3-21G
 ****
 27  28  29  32  34  39  40  41  42  43  44  45  46  47  48  49 0
 3-21G
 ****


