%nproc=1
%NoSave
%Mem=1900MB
#P OB98/GEN NMR

erre ene a

0 1
  C      249.140    -899.140     323.917
  O      249.061    -898.060     322.991
  H      248.123    -899.430     324.199
  H      249.673    -898.820     324.812
  H      249.634    -900.000     323.469
  P      250.403    -897.570     322.273
  C      249.914    -898.190     319.812
  O      249.996    -897.150     320.779
  C      249.350    -897.640     318.483
  O      247.907    -897.470     318.626
  C      249.934    -896.280     318.073
  O      249.913    -896.230     316.633
  C      248.890    -895.340     318.655
  O      249.032    -894.010     318.192
  C      247.616    -896.100     318.285
  N      246.397    -895.650     318.948
  C      245.689    -894.600     318.371
  O      246.020    -894.020     317.321
  N      244.564    -894.200     319.031
  C      244.073    -894.750     320.198
  O      243.033    -894.370     320.721
  C      244.861    -895.840     320.762
  C      245.974    -896.240     320.121
  O      251.569    -898.480     322.375
  O      250.696    -896.150     322.962
  H      251.410    -896.250     323.631
  H      248.380    -893.440     318.664
  H      244.027    -893.450     318.628
  H      244.513    -896.280     321.677
  H      246.580    -897.050     320.510
  H      247.458    -896.070     317.204
  H      249.024    -895.280     319.739
  H      250.945    -896.110     318.423
  H      249.504    -898.390     317.712
  H      249.245    -898.970     320.203
  H      250.901    -898.610     319.652
  P      251.158    -895.750     315.745
  C      251.736    -898.110     314.818
  O      251.328    -896.760     314.511
  O      252.412    -895.530     316.518
  O      250.666    -894.380     315.045
  H      251.455    -893.830     314.843
  H      251.811    -898.675     313.912
  H      251.012    -898.564     315.462
  H      252.687    -898.093     315.307

 6  7  8  9  10  11  12  13  14  15  16  27  31  32  33  34  35 0
 6-311+G(2d,p)
 ****
 36  37 0
 6-311+G(2d,p)
 ****
 1  2  3  4  5  17  18  19  20  21  22  23  24  25 0
 3-21G
 ****
 26  28  29  30  38  39  40  41  42  43  44  45 0
 3-21G
 ****


