%nproc=1
%NoSave
%Mem=1900MB
#P OB98/GEN NMR

erre ene a

0 1
  C      553.665    -265.319     -81.454
  O      552.774    -264.510     -82.199
  H      554.430    -265.711     -82.128
  H      553.143    -266.157     -80.991
  H      554.159    -264.717     -80.680
  P      551.420    -264.027     -81.488
  C      549.666    -265.203     -79.994
  O      550.697    -265.370     -80.970
  C      548.615    -266.309     -80.132
  O      549.256    -267.593     -80.278
  C      547.718    -266.454     -78.908
  O      546.821    -265.371     -78.714
  C      547.164    -267.863     -79.067
  O      546.006    -267.929     -79.894
  C      548.344    -268.590     -79.771
  N      549.019    -269.524     -78.873
  C      548.326    -270.713     -78.604
  O      547.198    -270.957     -79.062
  N      548.942    -271.582     -77.759
  C      550.136    -271.378     -77.118
  O      550.614    -272.180     -76.339
  C      550.809    -270.097     -77.429
  C      550.230    -269.254     -78.278
  O      550.527    -263.142     -82.314
  O      551.929    -263.343     -80.129
  H      545.331    -267.357     -79.488
  H      551.221    -262.768     -79.729
  H      548.459    -272.446     -77.556
  H      551.759    -269.902     -76.937
  H      550.705    -268.299     -78.514
  H      547.984    -269.159     -80.635
  H      546.899    -268.302     -78.097
  H      548.354    -266.475     -78.018
  H      548.025    -266.118     -81.033
  H      549.185    -264.230     -80.173
  H      550.105    -265.217     -78.991
  P      545.942    -265.186     -77.403
  C      544.506    -266.720     -75.857
  O      545.164    -266.574     -77.110
  O      545.189    -263.906     -77.268
  O      547.071    -265.207     -76.247
  H      546.788    -264.596     -75.530
  H      544.040    -267.682     -75.809
  H      543.762    -265.958     -75.754
  H      545.221    -266.630     -75.066

 6  7  8  9  10  11  12  13  14  15  16  26  31  32  33  34  35 0
 6-311+G(2d,p)
 ****
 36  37 0
 6-311+G(2d,p)
 ****
 1  2  3  4  5  17  18  19  20  21  22  23  24  25 0
 3-21G
 ****
 27  28  29  30  38  39  40  41  42  43  44  45 0
 3-21G
 ****


