%nproc=1
%NoSave
%Mem=1900MB
#P OB98/GEN NMR

erre ene a

0 1
  C      360.852    -551.355    -596.480
  O      361.898    -550.754    -595.731
  P      361.647    -550.509    -594.164
  C      363.448    -552.152    -593.279
  O      363.024    -550.803    -593.389
  C      364.894    -552.227    -592.803
  O      365.779    -551.668    -593.834
  C      365.179    -551.447    -591.502
  O      366.188    -552.142    -590.743
  C      365.780    -550.156    -591.989
  O      366.573    -549.524    -590.977
  C      366.570    -550.632    -593.209
  N      368.319    -545.925    -593.734
  C      368.438    -546.791    -592.667
  N      369.042    -546.283    -591.560
  N      368.033    -548.017    -592.689
  C      367.442    -548.377    -593.853
  C      367.281    -547.613    -594.995
  C      367.735    -546.246    -594.950
  O      367.639    -545.420    -595.859
  N      366.681    -548.328    -596.000
  C      366.429    -549.502    -595.463
  N      366.851    -549.575    -594.160
  O      360.716    -551.754    -593.745
  O      360.992    -549.201    -593.838
  H      367.211    -550.185    -590.681
  H      359.786    -551.438    -593.623
  H      368.648    -544.975    -593.676
  H      365.936    -550.348    -595.960
  H      367.521    -551.068    -592.906
  H      364.981    -549.463    -592.274
  H      369.316    -545.321    -591.464
  H      364.284    -551.298    -590.873
  H      369.091    -546.892    -590.744
  H      365.177    -553.284    -592.698
  H      363.361    -552.652    -594.236
  H      362.801    -552.679    -592.557
  P      365.761    -552.589    -589.251
  C      366.604    -555.039    -589.563
  O      366.721    -553.802    -588.869
  O      364.334    -553.275    -589.479
  O      365.708    -551.458    -588.272
  H      363.807    -553.227    -588.665
  H      367.522    -555.233    -590.106
  H      365.751    -555.033    -590.266
  H      366.429    -555.827    -588.826
  H      361.157    -551.456    -597.501
  H      359.978    -550.741    -596.428
  H      360.634    -552.321    -596.076

 3  4  5  6  7  8  9  10  11  12  23  26  30  31 0
 6-311+G(2d,p)
 ****
 33  35  36  37  38 0
 6-311+G(2d,p)
 ****
 1  2  13  14  15  16  17  18  19  20  21  22  24  25 0
 3-21G
 ****
 27  28  29  32  34  39  40  41  42  43  44  45  46  47  48  49 0
 3-21G
 ****


