%nproc=1
%NoSave
%Mem=1900MB
#P OB98/GEN NMR

erre ene a

0 1
  C     -171.499     295.671     868.190
  O     -172.268     295.255     867.081
  P     -173.404     296.212     866.484
  C     -174.968     295.457     868.375
  O     -174.818     295.641     866.976
  C     -176.375     294.945     868.702
  O     -177.334     296.018     868.581
  C     -176.864     293.847     867.766
  O     -176.267     292.601     868.085
  C     -178.371     293.914     868.003
  O     -178.728     293.187     869.195
  C     -178.596     295.415     868.201
  N     -182.846     296.649     865.661
  C     -182.636     295.855     866.733
  N     -181.462     295.545     867.332
  C     -180.431     296.127     866.688
  C     -180.490     296.941     865.568
  C     -181.778     297.221     865.056
  N     -182.011     298.072     864.000
  N     -179.223     297.324     865.181
  C     -178.411     296.758     866.056
  N     -179.106     296.076     867.019
  O     -173.296     296.495     865.022
  O     -173.245     297.556     867.339
  H     -178.507     292.255     869.039
  H     -173.037     298.299     866.732
  H     -183.526     295.416     867.181
  H     -177.332     296.813     866.037
  H     -179.300     295.616     869.023
  H     -178.942     293.484     867.179
  H     -176.657     294.126     866.723
  H     -176.384     294.601     869.742
  H     -174.798     296.414     868.880
  H     -182.962     298.318     863.801
  H     -181.270     298.725     863.741
  H     -174.219     294.738     868.733
  P     -175.826     291.611     866.907
  C     -178.240     290.993     866.283
  O     -176.993     290.524     866.763
  O     -174.447     291.051     867.007
  O     -176.000     292.493     865.582
  H     -175.338     292.215     864.914
  H     -178.777     291.499     867.090
  H     -178.831     290.140     865.949
  H     -178.100     291.674     865.444
  H     -170.796     294.905     868.444
  H     -172.145     295.853     869.023
  H     -170.973     296.570     867.943

 3  4  5  6  7  8  9  10  11  12  22  25  29  30  31  32 0
 6-311+G(2d,p)
 ****
 33  36  37 0
 6-311+G(2d,p)
 ****
 1  2  13  14  15  16  17  18  19  20  21  23  24  26 0
 3-21G
 ****
 27  28  34  35  38  39  40  41  42  43  44  45  46  47  48 0
 3-21G
 ****


