%nproc=1
%NoSave
%Mem=1900MB
#P OB98/GEN NMR

erre ene a

0 1
  C      480.351     118.239     219.748
  O      479.596     119.383     219.317
  P      480.232     120.292     218.161
  C      479.251     121.211     215.925
  O      479.038     120.939     217.305
  C      477.937     121.090     215.147
  O      477.477     119.723     215.129
  C      476.796     121.886     215.769
  O      476.918     123.257     215.447
  C      475.574     121.209     215.153
  O      475.189     121.837     213.914
  C      476.049     119.759     214.921
  N      475.363     118.798     215.769
  C      474.053     118.483     215.395
  O      473.533     119.017     214.415
  N      473.353     117.578     216.161
  C      473.909     117.065     217.224
  N      473.168     116.177     217.941
  C      475.286     117.393     217.659
  C      475.942     118.261     216.896
  O      480.870     119.222     217.158
  O      481.253     121.272     218.656
  H      476.001     121.893     213.386
  H      481.667     119.588     216.738
  H      475.699     116.948     218.555
  H      476.954     118.562     217.152
  H      475.877     119.469     213.876
  H      474.698     121.286     215.822
  H      476.786     121.749     216.859
  H      478.104     121.417     214.113
  H      472.231     115.975     217.615
  H      479.995     120.526     215.512
  H      473.499     115.719     218.784
  H      479.671     122.230     215.827
  P      476.880     124.315     216.644
  C      477.771     126.706     216.982
  O      477.566     125.645     216.059
  O      478.021     123.757     217.628
  O      475.575     124.504     217.356
  H      478.029     124.270     218.461
  H      478.427     127.454     216.511
  H      478.252     126.330     217.881
  H      476.818     127.177     217.230
  H      479.813     117.726     220.518
  H      481.299     118.559     220.128
  H      480.503     117.579     218.919

 3  4  5  6  7  8  9  10  11  12  13  21  23  27  28  29  30  32 0
 6-311+G(2d,p)
 ****
 34  35 0
 6-311+G(2d,p)
 ****
 1  2  14  15  16  17  18  19  20  22  24  25  26 0
 3-21G
 ****
 31  33  36  37  38  39  40  41  42  43  44  45  46 0
 3-21G
 ****


