%nproc=1
%NoSave
%Mem=1900MB
#P OB98/GEN NMR

erre ene a

0 1
  C      749.645     -45.873     490.845
  O      750.810     -46.536     490.380
  H      749.762     -44.796     490.656
  H      749.518     -46.019     491.924
  H      748.760     -46.229     490.310
  P      750.953     -48.105     490.676
  C      751.925     -48.007     488.281
  O      751.933     -48.669     489.539
  C      752.659     -48.852     487.242
  O      752.117     -50.186     487.207
  C      752.541     -48.303     485.833
  O      753.385     -47.183     485.639
  C      752.907     -49.530     485.012
  O      754.321     -49.730     484.956
  C      752.225     -50.660     485.837
  N      750.928     -51.047     485.310
  C      750.938     -51.996     484.278
  O      752.000     -52.455     483.866
  N      749.730     -52.371     483.721
  C      748.627     -51.859     484.169
  N      747.473     -52.278     483.580
  C      748.564     -50.864     485.266
  C      749.746     -50.507     485.785
  O      749.682     -48.888     490.835
  O      751.862     -48.151     492.003
  H      754.588     -50.015     485.849
  H      751.300     -48.126     492.799
  H      747.613     -50.483     485.598
  H      749.786     -49.784     486.588
  H      752.872     -51.556     485.864
  H      752.537     -49.463     483.994
  H      751.492     -48.046     485.612
  H      753.725     -48.932     487.543
  H      747.562     -52.947     482.828
  H      752.437     -47.049     488.416
  H      746.553     -52.014     483.891
  H      750.905     -47.821     487.946
  P      752.757     -45.737     485.303
  C      754.356     -44.774     487.085
  O      753.896     -44.684     485.743
  O      751.388     -45.489     485.870
  O      752.808     -45.686     483.699
  H      752.123     -46.254     483.295
  H      755.105     -44.029     487.256
  H      754.773     -45.745     487.255
  H      753.536     -44.616     487.754

 6  7  8  9  10  11  12  13  14  15  16  26  30  31  32  33  35 0
 6-311+G(2d,p)
 ****
 37  38 0
 6-311+G(2d,p)
 ****
 1  2  3  4  5  17  18  19  20  21  22  23  24  25 0
 3-21G
 ****
 27  28  29  34  36  39  40  41  42  43  44  45  46 0
 3-21G
 ****


