%nproc=1
%NoSave
%Mem=1900MB
#P OB98/GEN NMR

erre ene a

0 1
  C      109.375    -382.669     248.350
  O      109.600    -381.802     249.445
  H      110.133    -382.491     247.584
  H      109.464    -383.702     248.698
  H      108.377    -382.520     247.933
  P      109.228    -380.256     249.242
  C      106.674    -380.535     249.611
  O      107.715    -380.220     248.699
  C      105.357    -379.910     249.157
  O      105.028    -380.433     247.839
  C      104.166    -380.195     250.088
  O      103.356    -379.016     250.158
  C      103.400    -381.278     249.349
  O      102.020    -381.303     249.691
  C      103.665    -380.893     247.898
  N      100.345    -384.541     246.666
  C      100.208    -383.395     247.364
  N      101.137    -382.446     247.601
  C      102.288    -382.742     246.974
  C      102.577    -383.868     246.223
  C      101.541    -384.810     246.091
  N      101.692    -386.013     245.440
  N      103.890    -383.837     245.793
  C      104.389    -382.724     246.295
  N      103.459    -382.030     247.021
  O      110.098    -379.860     247.954
  O      109.515    -379.365     250.404
  H      101.601    -380.479     249.377
  H      110.985    -379.576     248.235
  H       99.225    -383.219     247.801
  H      105.411    -382.395     246.197
  H      103.011    -380.084     247.549
  H      103.834    -382.255     249.584
  H      104.458    -380.502     251.097
  H      105.507    -378.828     249.042
  H      106.933    -380.136     250.600
  H      100.930    -386.672     245.488
  H      102.607    -386.275     245.104
  H      106.574    -381.623     249.686
  P      102.951    -378.484     251.618
  C      105.039    -377.017     252.137
  O      104.294    -378.189     252.441
  O      102.356    -379.785     252.330
  O      101.961    -377.365     251.598
  H      101.654    -379.539     252.951
  H      105.900    -376.968     252.770
  H      104.428    -376.154     252.298
  H      105.350    -377.047     251.114

 6  7  8  9  10  11  12  13  14  15  25  28  32  33  34  35 0
 6-311+G(2d,p)
 ****
 36  39  40 0
 6-311+G(2d,p)
 ****
 1  2  3  4  5  16  17  18  19  20  21  22  23  24 0
 3-21G
 ****
 26  27  29  30  31  37  38  41  42  43  44  45  46  47 0
 3-21G
 ****
 48 0
 3-21G
 ****


