%nproc=1
%NoSave
%Mem=1900MB
#P OB98/GEN NMR

erre ene a

0 1
  C      103.356     -55.045      79.983
  O      102.761     -53.869      79.473
  H      103.306     -55.843      79.238
  H      104.406     -54.840      80.211
  H      102.851     -55.358      80.900
  P      101.214     -53.977      79.060
  C      100.548     -51.507      79.453
  O      100.784     -52.532      78.500
  C      101.827     -50.707      79.689
  O      102.466     -50.486      78.405
  C      101.597     -49.338      80.351
  O      102.471     -49.169      81.473
  C      101.988     -48.338      79.278
  O      102.591     -47.163      79.807
  C      102.952     -49.138      78.411
  N      105.847     -46.451      75.188
  C      106.159     -47.132      76.312
  N      105.360     -47.908      77.071
  C      104.123     -47.973      76.547
  C      103.664     -47.354      75.397
  C      104.584     -46.542      74.712
  N      104.251     -45.804      73.597
  N      102.331     -47.649      75.179
  C      101.981     -48.398      76.205
  N      103.027     -48.608      77.066
  O      100.464     -54.073      80.473
  O      100.885     -55.137      78.185
  H      102.886     -46.622      79.052
  H       99.987     -54.923      80.518
  H      107.187     -47.035      76.651
  H      100.983     -48.773      76.399
  H      103.966     -49.148      78.833
  H      101.092     -48.048      78.718
  H      100.561     -49.194      80.673
  H      102.514     -51.313      80.291
  H      100.227     -51.954      80.401
  H      104.938     -45.161      73.239
  H      103.285     -45.783      73.306
  H       99.750     -50.853      79.085
  P      101.840     -49.489      82.919
  C      104.096     -50.077      84.063
  O      102.970     -49.209      84.027
  O      101.692     -51.082      82.905
  O      100.529     -48.821      83.162
  H      100.765     -51.332      83.082
  H      104.758     -49.770      84.845
  H      104.609     -50.035      83.125
  H      103.768     -51.079      84.246

 6  7  8  9  10  11  12  13  14  15  25  28  32  33  34  35 0
 6-311+G(2d,p)
 ****
 36  39  40 0
 6-311+G(2d,p)
 ****
 1  2  3  4  5  16  17  18  19  20  21  22  23  24 0
 3-21G
 ****
 26  27  29  30  31  37  38  41  42  43  44  45  46  47  48 0
 3-21G
 ****


