%nproc=1
%NoSave
%Mem=1900MB
#P OB98/GEN NMR

erre ene a

0 1
  C     -394.984    -239.070     -55.859
  O     -393.912    -239.910     -55.458
  P     -394.211    -241.479     -55.303
  C     -391.749    -241.941     -56.113
  O     -392.778    -242.184     -55.160
  C     -390.389    -242.348     -55.532
  O     -389.946    -241.358     -54.581
  C     -390.397    -243.668     -54.773
  O     -390.407    -244.780     -55.649
  C     -389.129    -243.527     -53.931
  O     -387.972    -243.843     -54.721
  C     -389.145    -242.028     -53.584
  N     -389.642    -241.754     -52.235
  C     -388.674    -241.541     -51.255
  O     -387.466    -241.573     -51.484
  N     -389.148    -241.304     -49.993
  C     -390.459    -241.325     -49.606
  O     -390.824    -241.150     -48.449
  C     -391.432    -241.590     -50.678
  C     -390.986    -241.786     -51.922
  O     -394.700    -241.835     -56.781
  O     -395.193    -241.782     -54.219
  H     -394.318    -241.235     -57.444
  H     -387.936    -244.819     -54.785
  H     -388.466    -241.124     -49.268
  H     -392.481    -241.624     -50.409
  H     -391.688    -241.992     -52.720
  H     -388.138    -241.608     -53.668
  H     -389.129    -244.196     -53.064
  H     -391.273    -243.714     -54.113
  H     -389.666    -242.378     -56.355
  H     -391.740    -240.878     -56.358
  H     -391.964    -242.511     -57.024
  P     -391.515    -245.913     -55.360
  C     -391.127    -246.900     -57.754
  O     -391.188    -247.124     -56.362
  O     -392.822    -245.232     -55.980
  O     -391.631    -246.285     -53.920
  H     -392.653    -244.788     -56.830
  H     -390.559    -247.711     -58.214
  H     -390.635    -245.952     -57.983
  H     -392.143    -246.898     -58.165
  H     -394.641    -238.058     -55.920
  H     -395.776    -239.135     -55.142
  H     -395.343    -239.383     -56.817

 3  4  5  6  7  8  9  10  11  12  13  24  28  29  30  31  32 0
 6-311+G(2d,p)
 ****
 33  34 0
 6-311+G(2d,p)
 ****
 1  2  14  15  16  17  18  19  20  21  22  23  25  26  27 0
 3-21G
 ****
 35  36  37  38  39  40  41  42  43  44  45 0
 3-21G
 ****


