%nproc=1
%NoSave
%Mem=1900MB
#P OB98/GEN NMR

erre ene a

0 1
  C     -258.729      95.302      45.823
  O     -258.124      94.937      44.600
  H     -259.727      95.696      45.616
  H     -258.140      96.075      46.326
  H     -258.823      94.426      46.470
  P     -256.621      94.381      44.679
  C     -256.029      95.713      42.554
  O     -256.097      94.429      43.162
  C     -256.580      95.658      41.130
  O     -255.585      95.042      40.270
  C     -257.870      94.839      41.001
  O     -258.713      95.446      40.021
  C     -257.378      93.502      40.477
  O     -258.400      92.774      39.805
  C     -256.212      93.940      39.594
  N     -253.678      91.331      36.031
  C     -254.416      92.461      35.972
  N     -255.040      93.103      36.981
  C     -254.793      92.495      38.156
  C     -254.062      91.340      38.374
  C     -253.494      90.740      37.236
  N     -252.770      89.573      37.277
  N     -254.080      91.005      39.712
  C     -254.800      91.943      40.295
  N     -255.268      92.856      39.388
  O     -256.455      93.068      45.367
  O     -255.849      95.612      45.351
  H     -258.002      91.962      39.421
  H     -256.091      96.459      44.929
  H     -254.526      92.902      34.984
  H     -255.022      92.004      41.356
  H     -256.538      94.279      38.601
  H     -257.021      92.883      41.311
  H     -258.408      94.739      41.944
  H     -256.723      96.686      40.767
  H     -254.990      96.062      42.532
  H     -252.395      89.210      36.414
  H     -252.616      89.117      38.166
  H     -256.616      96.407      43.165
  P     -259.746      96.582      40.477
  C     -261.616      95.132      39.460
  O     -261.088      96.443      39.608
  O     -259.189      97.965      40.560
  O     -260.221      96.070      41.922
  H     -260.268      96.832      42.532
  H     -262.504      95.170      38.865
  H     -261.850      94.731      40.424
  H     -260.892      94.508      38.980

 6  7  8  9  10  11  12  13  14  15  25  28  32  33  34  35 0
 6-311+G(2d,p)
 ****
 36  39  40 0
 6-311+G(2d,p)
 ****
 1  2  3  4  5  16  17  18  19  20  21  22  23  24 0
 3-21G
 ****
 26  27  29  30  31  37  38  41  42  43  44  45  46  47 0
 3-21G
 ****
 48 0
 3-21G
 ****


