%nproc=1
%NoSave
%Mem=1900MB
#P OB98/GEN NMR

erre ene a

0 1
  C      -77.961     -13.679      -6.712
  O      -78.764     -12.846      -5.860
  P      -79.316     -13.445      -4.473
  C      -77.609     -12.185      -2.942
  O      -78.126     -13.427      -3.397
  C      -76.481     -12.424      -1.933
  O      -75.413     -13.187      -2.538
  C      -75.819     -11.153      -1.419
  O      -76.618     -10.493      -0.451
  C      -74.512     -11.700      -0.858
  O      -74.700     -12.222       0.468
  C      -74.191     -12.836      -1.850
  N      -73.133     -12.481      -2.791
  C      -72.704     -13.488      -3.649
  O      -73.131     -14.640      -3.603
  N      -71.735     -13.134      -4.547
  C      -71.116     -11.918      -4.625
  O      -70.240     -11.667      -5.440
  C      -71.553     -10.919      -3.638
  C      -72.520     -11.244      -2.776
  O      -79.433     -15.009      -4.810
  O      -80.629     -12.904      -4.010
  H      -75.293     -12.994       0.383
  H      -80.133     -15.410      -4.260
  H      -71.431     -13.840      -5.199
  H      -71.071      -9.951      -3.649
  H      -72.856     -10.515      -2.043
  H      -73.885     -13.736      -1.304
  H      -73.731     -10.935      -0.795
  H      -75.596     -10.484      -2.259
  H      -76.887     -13.011      -1.099
  H      -78.408     -11.618      -2.458
  H      -77.243     -11.614      -3.801
  P      -77.575      -9.320      -0.984
  C      -79.723     -10.608      -0.238
  O      -78.980     -10.026      -1.286
  O      -76.934      -9.033      -2.423
  O      -77.614      -8.137      -0.073
  H      -76.573      -9.839      -2.830
  H      -79.593     -10.063       0.701
  H      -79.403     -11.646      -0.102
  H      -80.782     -10.596      -0.508
  H      -77.680     -13.129      -7.586
  H      -78.524     -14.543      -7.000
  H      -77.082     -13.985      -6.185

 3  4  5  6  7  8  9  10  11  12  13  23  28  29  30  31  32 0
 6-311+G(2d,p)
 ****
 33  34 0
 6-311+G(2d,p)
 ****
 1  2  14  15  16  17  18  19  20  21  22  24  25  26 0
 3-21G
 ****
 27  35  36  37  38  39  40  41  42  43  44  45 0
 3-21G
 ****


