%nproc=1
%NoSave
%Mem=1900MB
#P OB98/GEN NMR

erre ene a

0 1
  C      -73.791     251.968     314.947
  O      -72.851     252.987     315.196
  P      -71.313     252.803     314.769
  C      -69.118     254.066     315.231
  O      -70.542     254.110     315.291
  C      -68.528     255.318     315.878
  O      -69.159     256.523     315.358
  C      -68.739     255.401     317.381
  O      -68.084     254.442     318.184
  C      -68.420     256.860     317.648
  O      -67.008     257.080     317.735
  C      -68.998     257.538     316.378
  N      -70.252     258.237     316.655
  C      -70.195     259.627     316.633
  O      -69.170     260.265     316.396
  N      -71.369     260.275     316.928
  C      -72.547     259.686     317.278
  O      -73.546     260.328     317.572
  C      -72.540     258.213     317.300
  C      -71.412     257.568     316.995
  O      -71.090     252.478     313.332
  O      -70.787     251.673     315.777
  H      -66.866     258.045     317.776
  H      -70.851     251.913     316.720
  H      -71.341     261.284     316.926
  H      -73.463     257.715     317.564
  H      -71.383     256.480     317.005
  H      -68.280     258.273     315.982
  H      -68.856     257.213     318.589
  H      -69.808     255.268     317.580
  H      -67.468     255.371     315.613
  H      -68.806     254.030     314.178
  H      -68.754     253.158     315.722
  P      -68.448     254.181     319.722
  C      -68.865     252.125     321.246
  O      -68.652     252.607     319.937
  O      -69.458     255.099     320.336
  O      -67.026     254.420     320.431
  H      -67.179     254.778     321.324
  H      -68.949     251.032     321.206
  H      -69.809     252.524     321.654
  H      -68.029     252.395     321.894
  H      -74.753     252.276     315.301
  H      -73.493     251.075     315.456
  H      -73.842     251.779     313.895

 3  4  5  6  7  8  9  10  11  12  13  23  28  29  30  31  32 0
 6-311+G(2d,p)
 ****
 33  34 0
 6-311+G(2d,p)
 ****
 1  2  14  15  16  17  18  19  20  21  22  24  25  26  27 0
 3-21G
 ****
 35  36  37  38  39  40  41  42  43  44  45 0
 3-21G
 ****


