%nproc=1
%NoSave
%Mem=1900MB
#P OB98/GEN NMR

erre ene a

0 1
  C      -71.797     152.830     102.950
  O      -70.814     152.749     101.937
  H      -71.333     153.217     103.859
  H      -72.207     151.838     103.158
  H      -72.600     153.507     102.646
  P      -71.302     152.218     100.504
  C      -70.823     149.823      99.612
  O      -71.418     150.624     100.626
  C      -69.438     149.370     100.061
  O      -69.522     148.774     101.376
  C      -68.821     148.301      99.170
  O      -68.275     148.838      97.980
  C      -67.777     147.708     100.103
  O      -66.574     148.486     100.104
  C      -68.465     147.791     101.470
  N      -67.274     143.179     103.305
  C      -66.525     144.279     103.073
  N      -66.922     145.477     102.594
  C      -68.247     145.483     102.375
  C      -69.138     144.442     102.567
  C      -68.603     143.240     103.060
  N      -69.360     142.113     103.273
  N      -70.412     144.818     102.192
  C      -70.296     146.066     101.788
  N      -69.007     146.512     101.884
  O      -70.013     152.437      99.580
  O      -72.505     152.903      99.950
  H      -65.939     148.006     100.671
  H      -70.122     153.254      99.057
  H      -65.466     144.181     103.293
  H      -71.105     146.681     101.413
  H      -67.781     148.124     102.259
  H      -67.517     146.694      99.802
  H      -69.565     147.528      98.938
  H      -68.785     150.249     100.125
  H      -70.731     150.413      98.693
  H      -71.468     148.960      99.417
  H      -68.899     141.266     103.561
  H      -70.330     142.112     102.984
  P      -68.142     147.864      96.714
  C      -65.633     147.286      96.303
  O      -66.850     146.947      96.953
  O      -67.702     148.838      95.523
  O      -69.383     147.106      96.381
  H      -68.108     148.543      94.686
  H      -64.877     146.577      96.569
  H      -65.326     148.265      96.608
  H      -65.779     147.272      95.243

 6  7  8  9  10  11  12  13  14  15  25  28  32  33  34  35 0
 6-311+G(2d,p)
 ****
 36  37  40 0
 6-311+G(2d,p)
 ****
 1  2  3  4  5  16  17  18  19  20  21  22  23  24 0
 3-21G
 ****
 26  27  29  30  31  38  39 41  42  43  44  45  46  47  48 0
 3-21G
 ****


