%nproc=1
%NoSave
%Mem=1900MB
#P OB98/GEN NMR

erre ene a

0 1
  C     -156.618      34.709     226.962
  O     -156.396      35.786     226.073
  H     -155.830      34.713     227.719
  H     -156.577      33.759     226.422
  H     -157.584      34.813     227.465
  P     -157.497      36.101     224.953
  C     -156.396      34.574     223.186
  O     -157.549      34.830     223.978
  C     -156.486      33.179     222.572
  O     -156.442      32.174     223.610
  C     -157.779      32.924     221.804
  O     -157.755      33.556     220.538
  C     -157.791      31.405     221.757
  O     -156.939      30.915     220.711
  C     -157.221      31.044     223.147
  N     -158.261      30.688     224.114
  C     -158.510      29.329     224.284
  O     -157.929      28.451     223.647
  N     -159.480      29.013     225.199
  C     -160.283      29.900     225.856
  O     -161.201      29.561     226.598
  C     -159.991      31.320     225.620
  C     -159.008      31.646     224.774
  O     -157.362      37.418     224.265
  O     -158.884      35.999     225.750
  H     -157.020      29.941     220.722
  H     -159.234      36.897     225.910
  H     -159.685      28.033     225.325
  H     -160.596      32.055     226.134
  H     -158.784      32.688     224.584
  H     -156.527      30.198     223.066
  H     -158.788      31.005     221.574
  H     -158.638      33.267     222.393
  H     -155.611      33.029     221.922
  H     -155.510      34.635     223.824
  H     -156.325      35.339     222.403
  P     -159.123      34.041     219.864
  C     -159.136      32.308     217.964
  O     -159.788      32.773     219.142
  O     -159.018      35.269     219.019
  O     -160.095      34.295     221.112
  H     -160.371      35.231     221.121
  H     -159.665      31.465     217.573
  H     -158.133      32.021     218.201
  H     -159.120      33.089     217.233

 6  7  8  9  10  11  12  13  14  15  16  26  31  32  33  34  35 0
 6-311+G(2d,p)
 ****
 36  37 0
 6-311+G(2d,p)
 ****
 1  2  3  4  5  17  18  19  20  21  22  23  24  25 0
 3-21G
 ****
 27  28  29  30  38  39  40  41  42  43  44  45 0
 3-21G
 ****


