%nproc=1
%NoSave
%Mem=1900MB
#P OB98/GEN NMR

erre ene a

0 1
  C     -140.486      48.692     -67.168
  O     -139.452      48.733     -68.128
  H     -141.401      49.085     -67.621
  H     -140.225      49.322     -66.314
  H     -140.675      47.670     -66.833
  P     -138.080      47.962     -67.826
  C     -137.470      47.758     -70.326
  O     -137.107      48.291     -69.059
  C     -138.363      48.748     -71.075
  O     -137.572      49.936     -71.384
  C     -138.912      48.194     -72.406
  O     -140.220      48.736     -72.621
  C     -137.935      48.783     -73.404
  O     -138.457      48.798     -74.708
  C     -137.693      50.163     -72.799
  N     -136.507      50.797     -73.367
  C     -136.564      51.144     -74.712
  O     -137.542      50.936     -75.430
  N     -135.422      51.680     -75.241
  C     -134.224      51.795     -74.600
  O     -133.211      52.209     -75.146
  C     -134.208      51.361     -73.192
  C     -135.334      50.897     -72.648
  O     -138.203      46.511     -67.499
  O     -137.410      48.800     -66.637
  H     -139.233      49.386     -74.751
  H     -136.758      48.251     -66.161
  H     -135.450      51.946     -76.214
  H     -133.269      51.424     -72.661
  H     -135.355      50.551     -71.620
  H     -138.560      50.817     -72.957
  H     -137.011      48.194     -73.419
  H     -138.950      47.102     -72.435
  H     -139.178      49.069     -70.415
  H     -138.010      46.819     -70.160
  H     -136.565      47.553     -70.907
  P     -141.547      47.873     -72.359
  C     -143.249      49.791     -72.230
  O     -142.839      48.631     -72.947
  O     -141.707      47.410     -70.946
  O     -141.391      46.607     -73.331
  H     -141.617      45.795     -72.837
  H     -144.111      50.216     -72.701
  H     -142.454      50.508     -72.227
  H     -143.490      49.521     -71.223

 6  7  8  9  10  11  12  13  14  15  16  26  31  32  33  34  35 0
 6-311+G(2d,p)
 ****
 36  37 0
 6-311+G(2d,p)
 ****
 1  2  3  4  5  17  18  19  20  21  22  23  24  25 0
 3-21G
 ****
 27  28  29  30  38  39  40  41  42  43  44  45 0
 3-21G
 ****


