%nproc=1
%NoSave
%Mem=1900MB
#P OB98/GEN NMR

erre ene a

0 1
  C     -524.910     363.517      68.200
  O     -524.245     364.188      67.150
  H     -524.169     363.000      68.811
  H     -525.606     362.778      67.792
  H     -525.450     364.226      68.835
  P     -525.085     365.177      66.210
  C     -524.866     367.633      66.977
  O     -524.308     366.580      66.205
  C     -524.689     368.980      66.267
  O     -525.580     369.958      66.895
  C     -523.261     369.555      66.345
  O     -523.057     370.333      65.155
  C     -523.376     370.444      67.571
  O     -522.278     371.308      67.720
  C     -524.752     371.068      67.302
  N     -525.350     371.773      68.428
  C     -524.769     372.968      68.829
  O     -523.783     373.479      68.295
  N     -525.362     373.592      69.898
  C     -526.462     373.154      70.574
  O     -526.970     373.769      71.501
  C     -527.030     371.878      70.107
  C     -526.462     371.261      69.075
  O     -526.546     365.265      66.499
  O     -524.810     364.618      64.733
  H     -525.581     364.101      64.432
  H     -522.137     371.796      66.883
  H     -524.954     374.464      70.196
  H     -527.896     371.497      70.632
  H     -526.868     370.323      68.699
  H     -524.688     371.752      66.447
  H     -523.397     369.827      68.477
  H     -522.490     368.785      66.412
  H     -525.018     368.876      65.225
  H     -524.347     367.656      67.946
  H     -525.927     367.431      67.147
  P     -522.094     369.878      63.954
  C     -523.795     369.005      62.214
  O     -522.899     370.045      62.576
  O     -521.498     368.520      64.139
  O     -520.956     371.002      63.877
  H     -520.143     370.619      63.496
  H     -524.261     369.244      61.281
  H     -524.545     368.901      62.970
  H     -523.255     368.086      62.118

 6  7  8  9  10  11  12  13  14  15  16  27  31  32  33  34  35 0
 6-311+G(2d,p)
 ****
 36  37 0
 6-311+G(2d,p)
 ****
 1  2  3  4  5  17  18  19  20  21  22  23  24  25 0
 3-21G
 ****
 26  28  29  30  38  39  40  41  42  43  44  45 0
 3-21G
 ****


