%nproc=1
%NoSave
%Mem=1900MB
#P OB98/GEN NMR

erre ene a

0 1
  C       -3.860     330.364     958.158
  O       -3.913     331.099     956.946
  P       -3.695     332.684     956.919
  C       -2.450     332.629     954.661
  O       -3.616     333.060     955.352
  C       -2.324     333.370     953.333
  O       -3.234     332.775     952.386
  C       -2.688     334.861     953.358
  O       -1.642     335.716     953.788
  C       -2.975     335.107     951.883
  O       -1.737     335.257     951.161
  C       -3.687     333.813     951.472
  N       -7.972     334.400     948.744
  C       -6.680     334.312     948.370
  N       -5.589     334.173     949.158
  C       -5.954     334.096     950.456
  C       -7.242     334.181     950.971
  C       -8.279     334.339     950.048
  N       -9.617     334.425     950.416
  N       -7.216     334.061     952.357
  C       -5.936     333.921     952.661
  N       -5.135     333.915     951.543
  O       -2.571     333.172     957.764
  O       -5.111     333.284     957.360
  H       -1.210     335.917     951.657
  H       -5.019     334.217     957.625
  H       -6.477     334.354     947.293
  H       -5.552     333.808     953.662
  H       -3.419     333.494     950.456
  H       -3.570     336.020     951.719
  H       -3.608     335.029     953.949
  H       -1.302     333.237     952.951
  H       -2.545     331.556     954.471
  H      -10.305     334.414     949.681
  H       -9.855     334.201     951.388
  H       -1.557     332.785     955.290
  P       -2.056     337.201     954.275
  C       -0.461     337.824     956.250
  O       -0.707     337.854     954.867
  O       -3.248     337.241     955.174
  O       -2.274     337.987     952.893
  H       -1.460     338.121     952.357
  H        0.563     338.173     956.438
  H       -0.560     336.814     956.652
  H       -1.151     338.502     956.782
  H       -4.031     329.328     957.954
  H       -4.613     330.725     958.827
  H       -2.896     330.485     958.607

 3  4  5  6  7  8  9  10  11  12  22  25  29  30  31  32 0
 6-311+G(2d,p)
 ****
 33  36  37 0
 6-311+G(2d,p)
 ****
 1  2  13  14  15  16  17  18  19  20  21  23  24  26 0
 3-21G
 ****
 27  28  34  35  38  39  40  41  42  43  44  45  46  47  48 0
 3-21G
 ****


