%nproc=1
%NoSave
%Mem=1900MB
#P OB98/GEN NMR

erre ene a

0 1
  C     -797.162    -893.430    1339.614
  O     -797.807    -893.670    1340.858
  H     -796.248    -892.860    1339.798
  H     -797.816    -892.830    1338.974
  H     -796.916    -894.370    1339.110
  P     -799.136    -894.570    1340.818
  C     -798.764    -896.500    1342.504
  O     -798.673    -896.070    1341.152
  C     -797.435    -896.330    1343.231
  O     -797.187    -894.910    1343.433
  C     -797.351    -897.010    1344.609
  O     -796.007    -897.510    1344.775
  C     -797.588    -895.860    1345.565
  O     -797.079    -896.130    1346.870
  C     -796.851    -894.740    1344.846
  N     -795.722    -891.210    1348.234
  C     -795.107    -892.410    1347.955
  N     -794.032    -892.730    1348.698
  N     -795.511    -893.240    1347.026
  C     -796.592    -892.780    1346.345
  C     -797.287    -891.620    1346.504
  C     -796.854    -890.730    1347.584
  O     -797.351    -889.650    1347.873
  N     -798.329    -891.530    1345.654
  C     -798.277    -892.630    1344.919
  N     -797.230    -893.440    1345.326
  O     -799.482    -894.610    1339.252
  O     -800.274    -894.050    1341.622
  H     -796.125    -896.350    1346.789
  H     -800.110    -893.910    1339.027
  H     -795.368    -890.600    1348.956
  H     -798.949    -892.920    1344.135
  H     -795.759    -894.830    1344.934
  H     -798.658    -895.660    1345.659
  H     -793.626    -892.120    1349.383
  H     -798.060    -897.840    1344.736
  H     -793.540    -893.580    1348.474
  H     -796.617    -896.700    1342.550
  H     -799.048    -897.570    1342.516
  H     -799.557    -895.930    1343.029
  P     -795.557    -898.780    1343.925
  C     -793.039    -898.160    1343.500
  O     -794.350    -898.340    1342.959
  O     -796.767    -898.980    1342.908
  O     -795.289    -900.000    1344.751
  H     -796.849    -899.930    1342.659
  H     -792.368    -897.870    1342.719
  H     -792.704    -899.078    1343.936
  H     -793.064    -897.398    1344.250

 6  7  8  9  10  11  12  13  14  15  26  29  33  34 0
 6-311+G(2d,p)
 ****
 36  38  39  40  41 0
 6-311+G(2d,p)
 ****
 1  2  3  4  5  16  17  18  19  20  21  22  23  24  25 0
 3-21G
 ****
 27  28  30  31  32  35  37  42  43  44  45  46  47 0
 3-21G
 ****
 48  49 0
 3-21G
 ****


