%nproc=1
%NoSave
%Mem=1900MB
#P OB98/GEN NMR

erre ene a

0 1
  C       -5.888     -17.838    -278.602
  O       -5.369     -17.681    -277.295
  H       -5.222     -18.495    -279.166
  H       -5.941     -16.873    -279.111
  H       -6.881     -18.294    -278.565
  P       -6.171     -16.750    -276.268
  C       -7.263     -14.448    -276.694
  O       -6.117     -15.269    -276.882
  C       -7.157     -13.198    -277.559
  O       -6.967     -13.556    -278.942
  C       -8.396     -12.304    -277.509
  O       -8.375     -11.494    -276.345
  C       -8.218     -11.513    -278.794
  O       -7.214     -10.498    -278.604
  C       -7.701     -12.599    -279.755
  N      -10.672     -12.595    -283.864
  C       -9.763     -11.651    -283.426
  N       -9.666     -10.525    -284.166
  N       -9.034     -11.788    -282.346
  C       -9.291     -12.931    -281.671
  C      -10.180     -13.935    -281.998
  C      -10.936     -13.796    -283.222
  O      -11.739     -14.619    -283.656
  N      -10.210     -14.909    -281.034
  C       -9.317     -14.516    -280.144
  N       -8.741     -13.312    -280.478
  O       -5.744     -16.824    -274.832
  O       -7.698     -17.179    -276.465
  H       -6.370     -10.965    -278.452
  H       -7.956     -17.877    -275.835
  H      -11.214     -12.421    -284.693
  H       -9.049     -15.063    -279.251
  H       -7.006     -12.197    -280.502
  H       -9.127     -11.012    -279.121
  H      -10.388     -10.251    -284.818
  H       -9.321     -12.887    -277.585
  H       -9.042      -9.799    -283.833
  H       -6.264     -12.646    -277.242
  H       -7.307     -14.181    -275.634
  H       -8.175     -15.000    -276.953
  P       -9.736     -10.908    -275.720
  C      -11.351      -9.098    -276.610
  O      -10.006      -9.546    -276.523
  O       -9.730     -10.763    -274.237
  O      -10.880     -11.870    -276.273
  H      -11.046     -12.661    -275.698
  H      -11.388      -8.186    -277.168
  H      -11.735      -8.930    -275.626
  H      -11.943      -9.841    -277.102

 6  7  8  9  10  11  12  13  14  15  26  29  33  34 0
 6-311+G(2d,p)
 ****
 36  38  39  40  41 0
 6-311+G(2d,p)
 ****
 1  2  3  4  5  16  17  18  19  20  21  22  23  24  25 0
 3-21G
 ****
 27  28  30  31  32  35  37  42  43  44  45  46  47 0
 3-21G
 ****
 48  49 0
 3-21G
 ****


