%nproc=1
%NoSave
%Mem=1900MB
#P OB98/GEN NMR

erre ene a

0 1
  C      640.782    -208.674     742.617
  O      641.294    -208.193     741.386
  H      641.521    -209.353     743.063
  H      639.854    -209.231     742.465
  H      640.612    -207.843     743.307
  P      640.333    -207.302     740.466
  C      642.570    -206.545     739.413
  O      641.213    -206.902     739.189
  C      643.218    -206.096     738.105
  O      642.268    -205.377     737.296
  C      644.390    -205.152     738.312
  O      645.540    -205.850     738.743
  C      644.494    -204.516     736.934
  O      645.173    -205.373     736.013
  C      642.998    -204.373     736.552
  N      642.472    -203.039     736.815
  C      642.857    -202.037     735.918
  O      643.599    -202.300     734.972
  N      642.413    -200.749     736.146
  C      641.637    -200.498     737.152
  N      641.233    -199.213     737.314
  C      641.199    -201.531     738.115
  C      641.651    -202.764     737.889
  O      639.643    -206.144     741.128
  O      639.289    -208.360     739.871
  H      644.588    -206.144     735.882
  H      638.518    -208.448     740.461
  H      640.551    -201.273     738.938
  H      641.369    -203.581     738.549
  H      642.853    -204.599     735.489
  H      645.024    -203.569     736.969
  H      644.124    -204.364     739.027
  H      643.525    -206.987     737.546
  H      641.571    -198.536     736.637
  H      643.076    -207.433     739.797
  H      640.567    -198.911     738.011
  H      642.646    -205.747     740.162
  P      646.299    -205.420     740.085
  C      647.025    -207.892     739.908
  O      647.373    -206.584     740.354
  O      645.412    -205.090     741.244
  O      647.214    -204.193     739.607
  H      646.678    -203.378     739.470
  H      647.817    -208.572     740.144
  H      646.871    -207.879     738.849
  H      646.126    -208.208     740.396

 6  7  8  9  10  11  12  13  14  15  16  26  30  31  32  33  35 0
 6-311+G(2d,p)
 ****
 37  38 0
 6-311+G(2d,p)
 ****
 1  2  3  4  5  17  18  19  20  21  22  23  24  25 0
 3-21G
 ****
 27  28  29  34  36  39  40  41  42  43  44  45  46 0
 3-21G
 ****


