%nproc=1
%NoSave
%Mem=1900MB
#P OB98/GEN NMR

erre ene a

0 1
  C      -12.526     114.107      70.057
  O      -11.672     113.355      70.925
  P      -11.071     114.111      72.204
  C      -12.665     112.956      73.911
  O      -12.200     114.177      73.340
  C      -12.914     113.137      75.409
  O      -11.676     113.295      76.129
  C      -13.725     114.378      75.734
  O      -15.098     114.165      75.476
  C      -13.400     114.596      77.208
  O      -14.327     113.903      78.060
  C      -11.978     114.002      77.346
  N      -10.972     115.013      77.632
  C      -10.342     114.908      78.875
  O      -10.664     114.013      79.666
  N       -9.385     115.836      79.205
  C       -9.100     116.792      78.378
  N       -8.148     117.681      78.758
  C       -9.763     116.952      77.066
  C      -10.681     116.035      76.763
  O      -10.956     115.631      71.710
  O       -9.749     113.581      72.659
  H      -14.359     112.984      77.727
  H      -10.189     116.066      72.134
  H       -9.503     117.775      76.413
  H      -11.222     116.076      75.820
  H      -11.951     113.259      78.152
  H      -13.459     115.651      77.482
  H      -13.353     115.233      75.148
  H      -13.432     112.243      75.789
  H       -7.716     117.542      79.666
  H      -11.937     112.162      73.748
  H       -7.858     118.472      78.195
  H      -13.581     112.650      73.395
  P      -16.018     115.445      75.195
  C      -17.328     114.021      73.505
  O      -16.605     115.221      73.718
  O      -14.922     116.591      74.942
  O      -16.995     115.829      76.249
  H      -15.359     117.458      74.854
  H      -17.844     114.092      72.543
  H      -18.075     113.877      74.296
  H      -16.641     113.171      73.478
  H      -12.853     113.484      69.251
  H      -11.988     114.944      69.665
  H      -13.376     114.455      70.606

 3  4  5  6  7  8  9  10  11  12  13  21  23  27  28  29  30  32 0
 6-311+G(2d,p)
 ****
 34  35 0
 6-311+G(2d,p)
 ****
 1  2  14  15  16  17  18  19  20  22  24  25  26 0
 3-21G
 ****
 31  33  36  37  38  39  40  41  42  43  44  45  46 0
 3-21G
 ****


