%nproc=1
%NoSave
%Mem=1900MB
#P OB98/GEN NMR

erre ene a

0 1
  C       29.734    -272.175     162.829
  O       30.394    -273.261     162.209
  H       28.926    -271.840     162.175
  H       30.425    -271.342     162.987
  H       29.304    -272.488     163.784
  P       31.703    -273.864     162.921
  C       33.130    -271.886     162.048
  O       32.926    -273.290     162.045
  C       33.597    -271.419     160.667
  O       33.830    -269.993     160.654
  C       34.910    -272.031     160.189
  O       34.785    -273.386     159.778
  C       35.232    -271.097     159.031
  O       34.400    -271.423     157.905
  C       34.834    -269.725     159.636
  N       35.972    -269.009     160.214
  C       35.967    -267.613     160.081
  O       35.044    -267.044     159.500
  N       37.030    -266.897     160.574
  C       38.024    -267.517     161.138
  N       39.074    -266.767     161.569
  C       38.061    -268.985     161.318
  C       37.020    -269.659     160.830
  O       31.716    -275.342     163.143
  O       31.850    -273.014     164.271
  H       34.474    -272.383     157.760
  H       32.640    -273.358     164.755
  H       38.916    -269.455     161.783
  H       36.983    -270.746     160.912
  H       34.365    -269.090     158.878
  H       36.273    -271.166     158.702
  H       35.689    -271.925     160.953
  H       32.775    -271.615     159.959
  H       39.031    -265.770     161.392
  H       33.877    -271.648     162.813
  H       39.981    -267.181     161.756
  H       32.196    -271.367     162.287
  P       35.956    -274.406     160.183
  C       37.694    -273.403     158.514
  O       36.923    -274.528     158.907
  O       35.205    -275.815     160.227
  O       36.675    -274.097     161.463
  H       34.905    -276.027     161.133
  H       38.278    -273.654     157.653
  H       38.344    -273.119     159.315
  H       37.042    -272.589     158.278

 6  7  8  9  10  11  12  13  14  15  16  26  30  31  32  33  35 0
 6-311+G(2d,p)
 ****
 37  38 0
 6-311+G(2d,p)
 ****
 1  2  3  4  5  17  18  19  20  21  22  23  24  25 0
 3-21G
 ****
 27  28  29  34  36  39  40  41  42  43  44  45  46 0
 3-21G
 ****


