%nproc=1
%NoSave
%Mem=1900MB
#P OB98/GEN NMR

erre ene a

0 1
  C     1208.353     -99.553    -149.025
  O     1208.473     -99.256    -150.405
  H     1209.315     -99.946    -148.666
  H     1207.589    -100.311    -148.863
  H     1208.113     -98.646    -148.464
  P     1207.157     -98.698    -151.137
  C     1206.001    -100.660    -152.373
  O     1206.989     -99.643    -152.418
  C     1205.579    -101.073    -153.782
  O     1204.856     -99.999    -154.416
  C     1206.739    -101.418    -154.705
  O     1207.161    -102.753    -154.493
  C     1206.086    -101.240    -156.070
  O     1205.318    -102.419    -156.390
  C     1205.141    -100.048    -155.838
  N     1204.125     -95.672    -158.347
  C     1203.446     -96.845    -158.265
  N     1203.803     -97.979    -157.633
  C     1204.989     -97.830    -157.015
  C     1205.815     -96.716    -157.022
  C     1205.323     -95.584    -157.719
  N     1206.015     -94.400    -157.803
  N     1206.959     -96.939    -156.287
  C     1206.807     -98.153    -155.814
  N     1205.659     -98.743    -156.263
  O     1207.130     -97.225    -151.385
  O     1206.012     -99.246    -150.151
  H     1204.956    -102.282    -157.293
  H     1206.219    -100.155    -149.859
  H     1202.498     -96.863    -158.787
  H     1207.498     -98.633    -155.125
  H     1204.186    -100.192    -156.360
  H     1206.815    -101.110    -156.879
  H     1207.573    -100.705    -154.609
  H     1204.885    -101.924    -153.683
  H     1205.126    -100.308    -151.803
  H     1205.699     -93.719    -158.478
  H     1206.972     -94.371    -157.450
  H     1206.426    -101.515    -151.828
  P     1208.695    -103.117    -154.159
  C     1209.418    -102.374    -156.522
  O     1209.352    -103.444    -155.581
  O     1208.859    -104.135    -153.082
  O     1209.345    -101.700    -153.781
  H     1210.198    -101.844    -153.300
  H     1209.875    -102.721    -157.425
  H     1209.999    -101.574    -156.113
  H     1208.429    -102.024    -156.734

 6  7  8  9  10  11  12  13  14  15  25  28  32  33  34  35 0
 6-311+G(2d,p)
 ****
 36  39  40 0
 6-311+G(2d,p)
 ****
 1  2  3  4  5  16  17  18  19  20  21  22  23  24 0
 3-21G
 ****
 26  27  29  30  31  37  38  41  42  43  44  45  46  47 0
 3-21G
 ****
 48 0
 3-21G
 ****


