%nproc=1
%NoSave
%Mem=1900MB
#P OB98/GEN NMR

erre ene a

0 1
  C       55.893    -755.351     -11.618
  O       55.360    -755.288     -12.922
  H       55.061    -755.349     -10.906
  H       56.518    -754.471     -11.432
  H       56.483    -756.261     -11.471
  P       56.294    -755.710     -14.156
  C       55.655    -758.211     -14.190
  O       56.684    -757.257     -13.968
  C       55.886    -759.011     -15.479
  O       57.241    -759.517     -15.517
  C       54.972    -760.232     -15.585
  O       53.683    -759.986     -16.094
  C       55.769    -761.140     -16.512
  O       55.502    -760.823     -17.896
  C       57.222    -760.801     -16.157
  N       59.210    -765.507     -15.733
  C       58.610    -764.904     -16.823
  N       58.467    -765.686     -17.924
  N       58.173    -763.672     -16.823
  C       58.287    -763.048     -15.633
  C       58.863    -763.542     -14.467
  C       59.387    -764.889     -14.494
  O       59.931    -765.467     -13.554
  N       58.811    -762.612     -13.452
  C       58.148    -761.597     -13.977
  N       57.842    -761.799     -15.304
  O       57.682    -754.961     -13.854
  O       55.776    -755.341     -15.512
  H       55.488    -759.855     -17.987
  H       58.158    -754.798     -14.687
  H       59.561    -766.439     -15.796
  H       57.888    -760.686     -13.441
  H       57.844    -760.723     -17.057
  H       55.511    -762.197     -16.375
  H       58.674    -766.665     -17.930
  H       54.893    -760.725     -14.602
  H       57.801    -765.376     -18.645
  H       55.772    -758.339     -16.338
  H       54.724    -757.649     -14.263
  H       55.564    -758.885     -13.335
  P       52.430    -760.837     -15.570
  C       51.781    -759.170     -13.670
  O       52.230    -760.466     -14.026
  O       53.006    -762.322     -15.538
  O       51.198    -760.741     -16.414
  H       52.763    -762.808     -16.353
  H       51.705    -759.099     -12.605
  H       50.822    -758.992     -14.109
  H       52.478    -758.441     -14.027

 6  7  8  9  10  11  12  13  14  15  26  29  33  34 0
 6-311+G(2d,p)
 ****
 36  38  39  40  41 0
 6-311+G(2d,p)
 ****
 1  2  3  4  5  16  17  18  19  20  21  22  23  24  25 0
 3-21G
 ****
 27  28  30  31  32  35  37  42  43  44  45  46  47 0
 3-21G
 ****
 48  49 0
 3-21G
 ****


