%nproc=1
%NoSave
%Mem=1900MB
#P OB98/GEN NMR

erre ene a

0 1
  C      675.749    -163.898     435.452
  O      675.244    -162.601     435.700
  H      676.692    -164.012     435.998
  H      675.940    -164.037     434.384
  H      675.045    -164.651     435.809
  P      673.875    -162.217     434.959
  C      672.414    -162.744     437.032
  O      672.898    -161.746     436.144
  C      672.256    -162.183     438.441
  O      673.536    -162.043     439.068
  C      671.591    -160.809     438.487
  O      670.188    -160.922     438.439
  C      672.065    -160.316     439.856
  O      671.226    -160.887     440.883
  C      673.490    -160.897     439.955
  N      677.088    -157.697     441.729
  C      676.075    -158.330     442.343
  N      675.112    -159.115     441.806
  C      675.304    -159.241     440.479
  C      676.296    -158.664     439.708
  C      677.236    -157.859     440.390
  N      678.274    -157.222     439.746
  N      676.167    -159.015     438.382
  C      675.145    -159.845     438.365
  N      674.561    -159.989     439.594
  O      673.332    -163.241     434.019
  O      674.278    -160.823     434.273
  H      670.346    -160.466     440.791
  H      674.823    -160.292     434.882
  H      676.010    -158.169     443.417
  H      674.797    -160.383     437.484
  H      673.707    -161.252     440.968
  H      671.998    -159.230     439.952
  H      671.992    -160.140     437.712
  H      671.673    -162.907     439.027
  H      673.104    -163.598     437.053
  H      678.773    -156.522     440.280
  H      678.302    -157.241     438.745
  H      671.451    -163.095     436.644
  P      669.249    -159.632     438.242
  C      668.868    -159.490     435.699
  O      668.367    -159.962     436.942
  O      669.986    -158.336     438.216
  O      668.201    -159.725     439.435
  H      667.753    -158.862     439.562
  H      668.197    -159.770     434.914
  H      669.830    -159.920     435.516
  H      668.954    -158.424     435.731

 6  7  8  9  10  11  12  13  14  15  25  28  32  33  34  35 0
 6-311+G(2d,p)
 ****
 36  39  40 0
 6-311+G(2d,p)
 ****
 1  2  3  4  5  16  17  18  19  20  21  22  23  24 0
 3-21G
 ****
 26  27  29  30  31  37  38  41  42  43  44  45  46  47 0
 3-21G
 ****
 48 0
 3-21G
 ****


