%nproc=1
%NoSave
%Mem=1900MB
#P OB98/GEN NMR

erre ene a

0 1
  C      -65.499     -69.257      70.724
  O      -65.772     -67.913      70.337
  P      -65.131     -66.724      71.197
  C      -62.776     -65.519      71.273
  O      -63.716     -66.313      70.583
  C      -61.460     -65.488      70.479
  O      -60.943     -66.825      70.314
  C      -61.611     -64.891      69.083
  O      -61.486     -63.480      69.092
  C      -60.506     -65.593      68.321
  O      -59.232     -64.995      68.623
  C      -60.588     -67.019      68.915
  N      -61.546     -67.971      68.312
  C      -61.185     -69.306      68.146
  O      -60.095     -69.772      68.469
  N      -62.137     -70.122      67.596
  C      -63.439     -69.796      67.358
  O      -64.265     -70.586      66.919
  C      -63.810     -68.416      67.689
  C      -62.865     -67.581      68.128
  O      -64.759     -67.418      72.586
  O      -66.032     -65.543      71.384
  H      -58.559     -65.477      68.111
  H      -65.288     -67.035      73.310
  H      -61.869     -71.075      67.403
  H      -64.844     -68.126      67.561
  H      -63.130     -66.556      68.376
  H      -59.605     -67.504      68.890
  H      -60.641     -65.492      67.247
  H      -62.567     -65.194      68.644
  H      -60.724     -64.910      71.053
  H      -62.597     -65.911      72.277
  H      -63.170     -64.505      71.394
  P      -62.789     -62.563      68.939
  C      -64.584     -61.699      70.555
  O      -63.309     -62.299      70.435
  O      -63.819     -63.042      67.973
  O      -62.194     -61.133      68.524
  H      -62.219     -61.016      67.546
  H      -64.885     -61.722      71.606
  H      -65.322     -62.246      69.963
  H      -64.538     -60.659      70.222
  H      -65.995     -69.929      70.055
  H      -65.853     -69.420      71.721
  H      -64.444     -69.432      70.687

 3  4  5  6  7  8  9  10  11  12  13  23  28  29  30  31  32 0
 6-311+G(2d,p)
 ****
 33  34 0
 6-311+G(2d,p)
 ****
 1  2  14  15  16  17  18  19  20  21  22  24  25  26  27 0
 3-21G
 ****
 35  36  37  38  39  40  41  42  43  44  45 0
 3-21G
 ****


