%nproc=1
%NoSave
%Mem=1900MB
#P OB98/GEN NMR

erre ene a

0 1
  C      157.164     -37.224      87.985
  O      158.072     -37.376      86.910
  H      157.663     -37.531      88.908
  H      156.279     -37.848      87.839
  H      156.868     -36.176      88.079
  P      157.500     -37.258      85.414
  C      157.399     -39.824      85.160
  O      156.656     -38.607      85.174
  C      156.472     -41.036      85.090
  O      155.792     -41.233      86.348
  C      155.358     -40.911      84.061
  O      155.794     -40.897      82.721
  C      154.388     -41.989      84.518
  O      154.756     -43.287      84.049
  C      154.552     -41.916      86.056
  N      153.415     -41.269      86.703
  C      152.510     -42.115      87.332
  O      152.617     -43.343      87.341
  N      151.441     -41.506      87.932
  C      151.174     -40.169      87.924
  O      150.185     -39.685      88.463
  C      152.146     -39.326      87.209
  C      153.209     -39.906      86.641
  O      158.520     -36.982      84.350
  O      156.365     -36.136      85.525
  H      154.100     -43.914      84.407
  H      156.108     -35.798      84.632
  H      150.780     -42.101      88.408
  H      151.961     -38.262      87.169
  H      153.943     -39.304      86.110
  H      154.649     -42.927      86.476
  H      153.369     -41.797      84.175
  H      154.851     -39.950      84.220
  H      157.087     -41.924      84.904
  H      157.984     -39.869      86.086
  H      158.085     -39.823      84.307
  P      155.012     -40.155      81.544
  C      153.623     -42.306      81.008
  O      153.620     -40.913      81.299
  O      155.820     -39.763      80.349
  O      154.532     -38.798      82.275
  H      154.545     -38.088      81.601
  H      152.617     -42.645      80.875
  H      154.074     -42.839      81.819
  H      154.180     -42.482      80.112

 6  7  8  9  10  11  12  13  14  15  16  26  31  32  33  34  35 0
 6-311+G(2d,p)
 ****
 36  37 0
 6-311+G(2d,p)
 ****
 1  2  3  4  5  17  18  19  20  21  22  23  24  25 0
 3-21G
 ****
 27  28  29  30  38  39  40  41  42  43  44  45 0
 3-21G
 ****


