%nproc=1
%NoSave
%Mem=1900MB
#P OB98/GEN NMR

erre ene a

0 1
  C     -292.118     -25.911     -62.626
  O     -293.069     -25.605     -63.627
  H     -292.253     -26.939     -62.280
  H     -291.117     -25.810     -63.051
  H     -292.217     -25.218     -61.784
  P     -294.612     -25.666     -63.192
  C     -295.069     -28.220     -63.163
  O     -295.215     -26.994     -63.865
  C     -295.719     -29.353     -63.950
  O     -295.489     -30.612     -63.287
  C     -297.234     -29.239     -64.101
  O     -297.594     -28.334     -65.134
  C     -297.592     -30.670     -64.466
  O     -297.308     -30.905     -65.858
  C     -296.619     -31.478     -63.590
  N     -300.141     -34.541     -61.492
  C     -299.741     -34.368     -62.771
  N     -298.782     -33.547     -63.250
  C     -298.196     -32.873     -62.249
  C     -298.476     -32.959     -60.894
  C     -299.505     -33.838     -60.521
  N     -299.951     -33.956     -59.214
  N     -297.672     -32.097     -60.171
  C     -296.934     -31.491     -61.078
  N     -297.208     -31.931     -62.344
  O     -295.268     -24.476     -64.045
  O     -294.869     -25.505     -61.731
  H     -296.373     -30.673     -65.996
  H     -295.335     -23.681     -63.484
  H     -300.267     -34.963     -63.513
  H     -296.198     -30.727     -60.865
  H     -296.222     -32.357     -64.112
  H     -298.648     -30.904     -64.306
  H     -297.715     -28.981     -63.150
  H     -295.233     -29.406     -64.933
  H     -295.549     -28.139     -62.182
  H     -300.930     -34.218     -59.141
  H     -299.629     -33.223     -58.591
  H     -294.003     -28.420     -63.023
  P     -298.770     -27.286     -64.831
  C     -299.815     -28.177     -67.024
  O     -299.529     -27.038     -66.225
  O     -297.974     -25.919     -64.581
  O     -299.642     -27.625     -63.670
  H     -298.211     -25.557     -63.705
  H     -300.318     -27.869     -67.917
  H     -300.441     -28.849     -66.475
  H     -298.901     -28.670     -67.282

 6  7  8  9  10  11  12  13  14  15  25  28  32  33  34  35 0
 6-311+G(2d,p)
 ****
 36  39  40 0
 6-311+G(2d,p)
 ****
 1  2  3  4  5  16  17  18  19  20  21  22  23  24 0
 3-21G
 ****
 26  27  29  30  31  37  38  41  42  43  44  45  46  47  48 0
 3-21G
 ****


