%nproc=1
%NoSave
%Mem=1900MB
#P OB98/GEN NMR

erre ene a

0 1
  C     -324.974     101.399     134.913
  O     -325.024     101.835     133.570
  H     -324.536     100.398     134.943
  H     -325.988     101.348     135.317
  H     -324.363     102.071     135.522
  P     -325.254     103.401     133.315
  C     -322.735     104.023     133.220
  O     -323.964     103.930     132.515
  C     -321.557     103.821     132.267
  O     -321.604     102.456     131.754
  C     -321.554     104.774     131.060
  O     -320.200     105.126     130.752
  C     -322.083     103.898     129.940
  O     -321.689     104.365     128.655
  C     -321.477     102.552     130.323
  N     -321.082      99.453     126.396
  C     -320.164     100.323     126.947
  N     -318.971     100.436     126.325
  N     -320.396     101.030     128.021
  C     -321.621     100.809     128.557
  C     -322.620      99.982     128.105
  C     -322.358      99.214     126.905
  O     -323.137      98.444     126.356
  N     -323.738     100.085     128.894
  C     -323.421     100.991     129.805
  N     -322.148     101.459     129.640
  O     -325.070     104.024     134.778
  O     -326.570     103.765     132.715
  H     -322.083     105.250     128.516
  H     -325.941     104.121     135.208
  H     -320.859      98.943     125.558
  H     -324.078     101.350     130.584
  H     -320.412     102.482     130.067
  H     -323.179     103.863     129.976
  H     -318.708      99.900     125.512
  H     -322.147     105.682     131.209
  H     -318.273     101.040     126.742
  H     -320.624     103.916     132.838
  H     -322.704     103.249     133.994
  H     -322.671     105.004     133.703
  P     -319.868     106.666     130.458
  C     -317.931     107.132     132.132
  O     -318.318     106.928     130.781
  O     -320.624     107.431     131.645
  O     -320.330     107.141     129.121
  H     -320.959     108.289     131.325
  H     -316.874     107.292     132.180
  H     -318.188     106.269     132.711
  H     -318.439     107.988     132.523

 6  7  8  9  10  11  12  13  14  15  26  29  33  34 0
 6-311+G(2d,p)
 ****
 36  38  39  40  41 0
 6-311+G(2d,p)
 ****
 1  2  3  4  5  16  17  18  19  20  21  22  23  24  25 0
 3-21G
 ****
 27  28  30  31  32  35  37  42  43  44  45  46  47 0
 3-21G
 ****
 48  49 0
 3-21G
 ****


