%nproc=1
%NoSave
%Mem=1900MB
#P OB98/GEN NMR

erre ene a

0 1
  C     -148.451    -339.292     438.254
  O     -148.746    -338.386     437.207
  H     -148.294    -338.742     439.185
  H     -149.300    -339.972     438.379
  H     -147.562    -339.880     438.014
  P     -147.558    -337.411     436.735
  C     -148.234    -337.575     434.229
  O     -148.063    -336.740     435.365
  C     -148.918    -336.805     433.093
  O     -150.332    -336.688     433.392
  C     -148.363    -335.388     432.898
  O     -148.314    -335.095     431.499
  C     -149.402    -334.506     433.578
  O     -149.403    -333.180     433.057
  C     -150.685    -335.292     433.311
  N     -153.394    -331.487     435.378
  C     -152.502    -331.514     434.363
  N     -151.822    -332.574     433.870
  C     -152.189    -333.705     434.505
  C     -153.087    -333.832     435.556
  C     -153.698    -332.649     436.007
  N     -154.582    -332.609     437.058
  N     -153.167    -335.155     435.961
  C     -152.335    -335.807     435.169
  N     -151.719    -334.970     434.278
  O     -146.436    -338.453     436.254
  O     -147.043    -336.467     437.770
  H     -150.189    -332.713     433.412
  H     -145.962    -338.803     437.033
  H     -152.292    -330.553     433.891
  H     -152.138    -336.870     435.207
  H     -151.096    -335.092     432.314
  H     -149.191    -334.453     434.655
  H     -147.368    -335.259     433.331
  H     -148.833    -337.395     432.173
  H     -148.858    -338.437     434.515
  H     -154.929    -331.709     437.347
  H     -154.771    -333.458     437.576
  H     -147.255    -337.939     433.894
  P     -146.860    -334.889     430.849
  C     -147.540    -335.626     428.460
  O     -147.035    -334.584     429.284
  O     -146.225    -336.362     430.884
  O     -146.008    -333.909     431.597
  H     -145.332    -336.332     431.278
  H     -147.603    -335.282     427.449
  H     -148.513    -335.910     428.801
  H     -146.884    -336.470     428.510

 6  7  8  9  10  11  12  13  14  15  25  28  32  33  34  35 0
 6-311+G(2d,p)
 ****
 36  39  40 0
 6-311+G(2d,p)
 ****
 1  2  3  4  5  16  17  18  19  20  21  22  23  24 0
 3-21G
 ****
 26  27  29  30  31  37  38  41  42  43  44  45  46  47 0
 3-21G
 ****
 48 0
 3-21G
 ****


