%nproc=1
%NoSave
%Mem=1900MB
#P OB98/GEN NMR

erre ene a

0 1
  C     -280.199     568.970    -384.720
  O     -280.101     569.662    -383.490
  H     -280.005     569.674    -385.536
  H     -281.200     568.554    -384.841
  H     -279.456     568.169    -384.760
  P     -280.457     568.821    -382.168
  C     -282.618     567.551    -381.448
  O     -281.997     568.418    -382.381
  C     -284.039     568.036    -381.156
  O     -284.009     569.318    -380.498
  C     -284.892     568.237    -382.403
  O     -285.406     567.025    -382.926
  C     -285.992     569.121    -381.842
  O     -286.901     568.318    -381.067
  C     -285.174     570.072    -380.936
  N     -284.766     571.302    -381.615
  C     -285.769     572.245    -381.872
  O     -286.936     572.023    -381.549
  N     -285.438     573.406    -382.529
  C     -284.207     573.619    -382.890
  N     -283.939     574.778    -383.546
  C     -283.116     572.659    -382.622
  C     -283.460     571.545    -381.994
  O     -280.544     569.939    -381.022
  O     -279.541     567.688    -381.851
  H     -287.259     567.638    -381.670
  H     -280.883     569.534    -380.185
  H     -282.106     572.876    -382.949
  H     -282.712     570.791    -381.762
  H     -285.748     570.345    -380.041
  H     -286.576     569.619    -382.616
  H     -284.356     568.798    -383.178
  H     -284.506     567.321    -380.464
  H     -284.714     575.386    -383.771
  H     -282.027     567.550    -380.526
  H     -283.059     574.944    -384.022
  H     -282.657     566.532    -381.848
  P     -285.689     566.951    -384.506
  C     -287.725     567.451    -386.042
  O     -287.254     567.231    -384.715
  O     -285.549     565.388    -384.825
  O     -284.772     567.778    -385.350
  H     -285.108     565.241    -385.686
  H     -288.781     567.623    -386.022
  H     -287.515     566.591    -386.642
  H     -287.233     568.305    -386.458

 6  7  8  9  10  11  12  13  14  15  16  26  30  31  32  33  35 0
 6-311+G(2d,p)
 ****
 37  38 0
 6-311+G(2d,p)
 ****
 1  2  3  4  5  17  18  19  20  21  22  23  24  25 0
 3-21G
 ****
 27  28  29  34  36  39  40  41  42  43  44  45  46 0
 3-21G
 ****


