%nproc=1
%NoSave
%Mem=1900MB
#P OB98/GEN NMR

erre ene a

0 1
  C      131.486    -382.924     101.092
  O      131.091    -384.083     100.384
  P      131.392    -384.224      98.814
  C      130.585    -383.011      96.685
  O      130.493    -383.093      98.110
  C      129.228    -383.294      96.039
  O      128.314    -382.195      96.276
  C      129.289    -383.461      94.524
  O      129.783    -384.741      94.185
  C      127.828    -383.228      94.143
  O      127.043    -384.421      94.331
  C      127.400    -382.134      95.159
  N      127.361    -380.805      94.560
  C      126.194    -380.477      93.873
  O      125.278    -381.304      93.766
  N      126.102    -379.245      93.275
  C      127.112    -378.425      93.348
  N      126.955    -377.219      92.720
  C      128.372    -378.748      94.039
  C      128.432    -379.945      94.613
  O      131.244    -385.600      98.254
  O      132.878    -383.645      98.674
  H      127.070    -384.615      95.298
  H      133.551    -384.274      99.021
  H      129.182    -378.027      94.054
  H      129.319    -380.255      95.143
  H      126.405    -382.364      95.566
  H      127.714    -382.925      93.100
  H      129.903    -382.668      94.087
  H      128.805    -384.191      96.504
  H      126.089    -377.043      92.233
  H      131.313    -383.753      96.340
  H      127.693    -376.518      92.676
  H      130.955    -382.013      96.398
  P      130.544    -384.959      92.783
  C      130.237    -383.986      90.433
  O      129.593    -384.409      91.628
  O      131.107    -386.330      92.571
  O      131.726    -383.874      92.831
  H      132.548    -384.283      92.523
  H      129.493    -383.954      89.627
  H      131.042    -384.680      90.154
  H      130.660    -382.986      90.573
  H      131.199    -383.018     102.118
  H      131.010    -382.066     100.666
  H      132.548    -382.811     101.027

 3  4  5  6  7  8  9  10  11  12  13  23  27  28  29  30  32 0
 6-311+G(2d,p)
 ****
 34  35 0
 6-311+G(2d,p)
 ****
 1  2  14  15  16  17  18  19  20  21  22  24  25  26 0
 3-21G
 ****
 31  33  36  37  38  39  40  41  42  43  44  45  46 0
 3-21G
 ****


