%nproc=1
%NoSave
%Mem=1900MB
#P OB98/GEN NMR

erre ene a

0 1
  C      330.661     288.810     365.188
  O      329.644     287.840     365.055
  H      331.117     288.975     364.210
  H      331.431     288.456     365.879
  H      330.249     289.759     365.545
  P      328.698     287.533     366.312
  C      329.178     287.326     368.836
  O      329.660     287.091     367.520
  C      330.251     286.955     369.855
  O      331.512     287.561     369.492
  C      329.955     287.440     371.267
  O      328.962     286.650     371.895
  C      331.337     287.360     371.894
  O      331.632     286.025     372.322
  C      332.250     287.772     370.718
  N      332.698     289.160     370.834
  C      333.402     289.482     371.992
  O      333.658     288.673     372.878
  N      333.753     290.798     372.124
  C      333.356     291.814     371.303
  O      333.481     293.002     371.591
  C      332.670     291.408     370.069
  C      332.368     290.120     369.896
  O      327.551     286.619     366.050
  O      328.199     288.986     366.769
  H      327.286     289.124     366.452
  H      331.000     285.828     373.045
  H      334.226     291.049     372.980
  H      332.402     292.176     369.355
  H      331.831     289.797     369.011
  H      333.133     287.121     370.673
  H      331.423     288.015     372.764
  H      329.641     288.489     371.238
  H      330.383     285.864     369.839
  H      328.286     286.711     369.002
  H      328.902     288.383     368.933
  P      328.372     287.079     373.324
  C      329.077     286.967     375.793
  O      329.404     286.602     374.454
  O      326.950     286.690     373.567
  O      328.537     288.670     373.345
  H      327.684     289.073     373.609
  H      329.831     286.598     376.457
  H      328.131     286.543     376.057
  H      329.025     288.033     375.869

 6  7  8  9  10  11  12  13  14  15  16  27  31  32  33  34  35 0
 6-311+G(2d,p)
 ****
 36  37 0
 6-311+G(2d,p)
 ****
 1  2  3  4  5  17  18  19  20  21  22  23  24  25 0
 3-21G
 ****
 26  28  29  30  38  39  40  41  42  43  44  45 0
 3-21G
 ****


