%nproc=1
%NoSave
%Mem=1900MB
#P OB98/GEN NMR

erre ene a

0 1
  C      765.794    -890.460     271.966
  O      765.902    -890.430     270.554
  H      764.740    -890.360     272.235
  H      766.344    -889.620     272.404
  H      766.174    -891.400     272.361
  P      767.337    -890.710     269.889
  C      766.527    -892.660     268.404
  O      767.371    -892.260     269.480
  C      767.369    -892.890     267.155
  O      768.377    -893.900     267.413
  C      766.563    -893.410     265.961
  O      765.835    -892.370     265.355
  C      767.684    -894.000     265.106
  O      768.348    -892.960     264.351
  C      768.621    -894.610     266.167
  N      768.436    -896.040     266.319
  C      768.885    -896.840     265.275
  O      769.375    -896.390     264.228
  N      768.713    -898.200     265.440
  C      768.067    -898.790     266.483
  O      767.866    -900.000     266.539
  C      767.596    -897.900     267.548
  C      767.798    -896.590     267.431
  O      768.519    -890.230     270.673
  O      767.237    -889.960     268.471
  H      767.733    -892.710     263.630
  H      767.758    -889.140     268.499
  H      769.018    -898.790     264.677
  H      767.088    -898.350     268.394
  H      767.460    -895.910     268.195
  H      769.657    -894.410     265.902
  H      767.303    -894.720     264.382
  H      765.901    -894.210     266.276
  H      767.899    -891.950     266.909
  H      765.805    -891.860     268.210
  H      765.989    -893.570     268.697
  P      764.301    -892.600     264.942
  C      763.465    -890.720     266.510
  O      763.389    -892.120     266.178
  O      763.972    -893.960     264.420
  O      764.015    -891.470     263.838
  H      763.766    -891.900     262.991
  H      762.822    -890.515     267.341
  H      763.156    -890.136     265.668
  H      764.473    -890.469     266.768

 6  7  8  9  10  11  12  13  14  15  16  26  31  32  33  34  35 0
 6-311+G(2d,p)
 ****
 36  37 0
 6-311+G(2d,p)
 ****
 1  2  3  4  5  17  18  19  20  21  22  23  24  25 0
 3-21G
 ****
 27  28  29  30  38  39  40  41  42  43  44  45 0
 3-21G
 ****


