%nproc=1
%NoSave
%Mem=1900MB
#P OB98/GEN NMR

erre ene a

0 1
  C       -7.187     251.833    -458.035
  O       -7.649     250.656    -457.399
  H       -6.545     252.377    -457.336
  H       -8.028     252.473    -458.312
  H       -6.597     251.581    -458.921
  P       -8.618     249.681    -458.223
  C      -10.716     250.811    -457.213
  O      -10.002     250.478    -458.398
  C      -11.952     251.645    -457.563
  O      -11.561     252.971    -457.971
  C      -12.787     251.067    -458.702
  O      -13.635     250.029    -458.221
  C      -13.548     252.307    -459.139
  O      -14.613     252.579    -458.206
  C      -12.460     253.389    -459.032
  N      -12.468     255.281    -463.744
  C      -13.493     255.216    -462.809
  N      -14.692     255.676    -463.205
  N      -13.345     254.716    -461.605
  C      -12.100     254.230    -461.379
  C      -11.018     254.221    -462.234
  C      -11.171     254.824    -463.537
  O      -10.294     254.917    -464.384
  N       -9.941     253.575    -461.668
  C      -10.366     253.223    -460.468
  N      -11.678     253.581    -460.247
  O       -8.788     248.293    -457.675
  O       -7.999     249.674    -459.697
  H      -15.036     253.410    -458.492
  H       -7.374     248.938    -459.815
  H      -12.651     255.656    -464.651
  H       -9.770     252.712    -459.723
  H      -12.871     254.370    -458.754
  H      -14.001     252.205    -460.125
  H      -14.926     255.800    -464.182
  H      -12.165     250.725    -459.535
  H      -15.466     255.594    -462.555
  H      -12.552     251.751    -456.645
  H      -10.034     251.379    -456.565
  H      -11.027     249.901    -456.691
  P      -13.939     248.729    -459.109
  C      -16.378     249.504    -459.505
  O      -15.123     249.172    -460.098
  O      -14.202     247.482    -458.334
  O      -12.685     248.621    -460.108
  H      -11.938     248.095    -459.732
  H      -17.073     249.779    -460.271
  H      -16.248     250.324    -458.830
  H      -16.755     248.658    -458.970

 6  7  8  9  10  11  12  13  14  15  26  29  33  34 0
 6-311+G(2d,p)
 ****
 36  38  39  40  41 0
 6-311+G(2d,p)
 ****
 1  2  3  4  5  16  17  18  19  20  21  22  23  24  25 0
 3-21G
 ****
 27  28  30  31  32  35  37  42  43  44  45  46  47 0
 3-21G
 ****
 48  49 0
 3-21G
 ****


