%nproc=1
%NoSave
%Mem=1900MB
#P OB98/GEN NMR

erre ene a

0 1
  C      149.438    -282.339    -439.031
  O      150.259    -283.050    -439.946
  H      149.551    -281.267    -439.231
  H      149.758    -282.532    -438.008
  H      148.390    -282.615    -439.158
  P      150.209    -284.652    -439.933
  C      148.218    -284.875    -441.551
  O      148.679    -285.071    -440.221
  C      147.504    -286.125    -442.052
  O      146.314    -286.340    -441.253
  C      147.059    -286.031    -443.525
  O      147.233    -287.313    -444.136
  C      145.582    -285.700    -443.431
  O      144.858    -286.139    -444.580
  C      145.182    -286.422    -442.139
  N      140.374    -285.091    -442.953
  C      141.269    -285.765    -443.772
  N      140.821    -286.108    -445.002
  N      142.488    -286.062    -443.414
  C      142.789    -285.665    -442.156
  C      141.998    -284.998    -441.251
  C      140.661    -284.658    -441.661
  O      139.830    -284.058    -440.978
  N      142.688    -284.748    -440.076
  C      143.884    -285.266    -440.279
  N      144.000    -285.824    -441.526
  O      150.815    -285.309    -438.734
  O      150.968    -285.073    -441.283
  H      143.905    -285.912    -444.428
  H      151.882    -285.337    -441.097
  H      139.450    -284.880    -443.284
  H      144.699    -285.261    -439.575
  H      144.948    -287.479    -442.319
  H      145.445    -284.617    -443.338
  H      139.885    -285.927    -445.333
  H      147.617    -285.276    -444.089
  H      141.450    -286.623    -445.613
  H      148.153    -286.991    -441.900
  H      149.087    -284.657    -442.190
  H      147.538    -284.013    -441.576
  P      148.569    -287.598    -444.969
  C      149.972    -288.778    -443.169
  O      149.811    -287.602    -443.958
  O      148.749    -286.769    -446.202
  O      148.424    -289.151    -445.355
  H      148.878    -289.309    -446.210
  H      150.827    -288.668    -442.536
  H      150.110    -289.622    -443.811
  H      149.100    -288.926    -442.568

 6  7  8  9  10  11  12  13  14  15  26  29  33  34 0
 6-311+G(2d,p)
 ****
 36  38  39  40  41 0
 6-311+G(2d,p)
 ****
 1  2  3  4  5  16  17  18  19  20  21  22  23  24  25 0
 3-21G
 ****
 27  28  30  31  32  35  37  42  43  44  45  46  47 0
 3-21G
 ****
 48  49 0
 3-21G
 ****


