%nproc=1
%NoSave
%Mem=1900MB
#P OB98/GEN NMR

erre ene a

0 1
  C     1153.938    -918.578    -729.135
  O     1153.313    -919.242    -728.052
  H     1154.464    -917.702    -728.753
  H     1153.197    -918.250    -729.865
  H     1154.660    -919.254    -729.619
  P     1152.393    -920.505    -728.412
  C     1150.862    -919.886    -726.385
  O     1151.605    -920.907    -727.070
  C     1149.880    -920.548    -725.423
  O     1148.815    -921.201    -726.188
  C     1150.480    -921.640    -724.551
  O     1151.196    -921.124    -723.446
  C     1149.231    -922.389    -724.126
  O     1148.613    -921.774    -722.966
  C     1148.338    -922.301    -725.360
  N     1148.290    -923.565    -726.092
  C     1147.426    -924.515    -725.602
  O     1146.731    -924.342    -724.577
  N     1147.399    -925.720    -726.249
  C     1148.181    -926.030    -727.323
  O     1148.142    -927.158    -727.842
  C     1149.094    -925.001    -727.822
  C     1149.099    -923.814    -727.189
  O     1153.451    -921.688    -728.611
  O     1151.529    -920.332    -729.612
  H     1153.550    -921.904    -729.541
  H     1149.218    -921.970    -722.220
  H     1146.788    -926.435    -725.899
  H     1149.730    -925.225    -728.662
  H     1149.773    -923.032    -727.517
  H     1147.302    -922.034    -725.068
  H     1149.471    -923.426    -723.850
  H     1151.109    -922.305    -725.174
  H     1149.424    -919.769    -724.804
  H     1150.316    -919.295    -727.125
  H     1151.568    -919.234    -725.858
  P     1152.487    -921.960    -722.944
  C     1153.442    -920.872    -720.725
  O     1153.409    -920.901    -722.150
  O     1153.250    -922.203    -724.316
  O     1152.125    -923.199    -722.169
  H     1153.050    -921.525    -724.979
  H     1154.110    -920.103    -720.399
  H     1153.780    -921.818    -720.357
  H     1152.460    -920.674    -720.349

 6  7  8  9  10  11  12  13  14  15  16  27  31  32  33  34  35 0
 6-311+G(2d,p)
 ****
 36  37 0
 6-311+G(2d,p)
 ****
 1  2  3  4  5  17  18  19  20  21  22  23  24  25 0
 3-21G
 ****
 26  28  29  30  38  39  40  41  42  43  44  45 0
 3-21G
 ****


