%nproc=1
%NoSave
%Mem=1900MB
#P OB98/GEN NMR

erre ene a

0 1
  C      126.023     344.842     274.045
  O      125.054     345.100     275.045
  P      123.580     344.499     274.849
  C      122.442     346.341     273.378
  O      122.586     345.738     274.655
  C      121.185     347.211     273.354
  O      120.003     346.426     273.626
  C      121.174     348.312     274.410
  O      121.991     349.420     274.014
  C      119.697     348.648     274.501
  O      119.315     349.574     273.470
  C      119.046     347.269     274.284
  N      118.551     346.681     275.520
  C      117.356     347.199     276.019
  O      116.753     348.111     275.464
  N      116.905     346.645     277.178
  C      117.534     345.684     277.913
  O      117.099     345.276     278.987
  C      118.809     345.204     277.373
  C      119.246     345.709     276.218
  O      123.200     343.910     276.281
  O      123.469     343.467     273.767
  H      119.796     350.407     273.634
  H      122.660     343.098     276.181
  H      116.014     346.992     277.545
  H      119.344     344.441     277.934
  H      120.208     345.377     275.799
  H      118.205     347.360     273.580
  H      119.444     349.123     275.461
  H      121.525     347.915     275.375
  H      121.085     347.651     272.348
  H      122.359     345.549     272.614
  H      123.330     346.939     273.159
  P      123.255     349.762     274.949
  C      121.716     351.101     276.585
  O      122.844     351.099     275.725
  O      124.323     350.237     273.837
  O      123.710     348.602     275.772
  H      123.884     350.681     273.075
  H      121.596     350.132     277.098
  H      120.818     351.305     275.992
  H      121.832     351.867     277.325
  H      126.948     345.305     274.317
  H      125.686     345.240     273.111
  H      126.167     343.786     273.952

 3  4  5  6  7  8  9  10  11  12  13  23  28  29  30  31  32 0
 6-311+G(2d,p)
 ****
 33  34 0
 6-311+G(2d,p)
 ****
 1  2  14  15  16  17  18  19  20  21  22  24  25  26 0
 3-21G
 ****
 27  35  36  37  38  39  40  41  42  43  44  45 0
 3-21G
 ****


