%nproc=1
%NoSave
%Mem=1900MB
#P OB98/GEN NMR

erre ene a

0 1
  C        7.785    -120.524     -31.894
  O        6.882    -121.338     -32.613
  H        8.192    -119.768     -32.572
  H        8.608    -121.131     -31.511
  H        7.277    -120.019     -31.068
  P        6.017    -122.384     -31.756
  C        6.983    -124.165     -33.378
  O        5.846    -123.692     -32.670
  C        6.758    -125.603     -33.836
  O        6.562    -126.469     -32.696
  C        5.536    -125.792     -34.729
  O        5.816    -125.466     -36.084
  C        5.297    -127.283     -34.562
  O        6.247    -128.021     -35.356
  C        5.585    -127.482     -33.068
  N        0.994    -129.343     -31.996
  C        1.906    -129.731     -32.959
  N        1.538    -130.754     -33.758
  N        3.071    -129.163     -33.129
  C        3.300    -128.145     -32.266
  C        2.478    -127.671     -31.269
  C        1.196    -128.312     -31.086
  O        0.361    -128.024     -30.234
  N        3.058    -126.631     -30.592
  C        4.221    -126.463     -31.189
  N        4.414    -127.352     -32.217
  O        4.548    -121.740     -31.760
  O        6.498    -122.627     -30.367
  H        7.102    -127.967     -34.892
  H        4.124    -121.920     -30.898
  H        0.106    -129.807     -31.915
  H        4.956    -125.718     -30.917
  H        6.029    -128.461     -32.856
  H        4.301    -127.589     -34.887
  H        0.636    -131.202     -33.713
  H        4.670    -125.238     -34.349
  H        2.202    -131.078     -34.450
  H        7.667    -125.939     -34.350
  H        7.857    -124.128     -32.720
  H        7.159    -123.517     -34.242
  P        5.018    -124.231     -36.732
  C        4.116    -125.352     -38.895
  O        5.071    -124.469     -38.318
  O        6.016    -123.000     -36.509
  O        3.671    -123.977     -36.150
  H        5.518    -122.161     -36.521
  H        4.276    -125.409     -39.951
  H        3.129    -124.985     -38.703
  H        4.225    -126.326     -38.465

 6  7  8  9  10  11  12  13  14  15  26  29  33  34 0
 6-311+G(2d,p)
 ****
 36  38  39  40  41 0
 6-311+G(2d,p)
 ****
 1  2  3  4  5  16  17  18  19  20  21  22  23  24  25 0
 3-21G
 ****
 27  28  30  31  32  35  37  42  43  44  45  46  47 0
 3-21G
 ****
 48  49 0
 3-21G
 ****


