%nproc=1
%NoSave
%Mem=1900MB
#P OB98/GEN NMR

erre ene a

0 1
  C       41.573     740.857    -303.203
  O       40.985     739.568    -303.210
  H       42.411     740.890    -303.906
  H       40.820     741.592    -303.510
  H       41.920     741.106    -302.197
  P       41.919     738.338    -302.777
  C       40.361     737.305    -300.970
  O       41.552     738.034    -301.242
  C       39.912     737.586    -299.534
  O       39.638     738.994    -299.367
  C       38.637     736.863    -299.125
  O       38.875     735.513    -298.752
  C       38.205     737.697    -297.930
  O       39.011     737.357    -296.784
  C       38.544     739.120    -298.411
  N       34.777     742.533    -297.777
  C       35.718     742.061    -296.930
  N       36.678     741.147    -297.177
  C       36.619     740.715    -298.445
  C       35.706     741.096    -299.421
  C       34.752     742.065    -299.043
  N       33.775     742.534    -299.907
  N       35.933     740.404    -300.597
  C       36.973     739.647    -300.343
  N       37.421     739.789    -299.060
  O       43.381     738.999    -302.676
  O       41.887     737.149    -303.676
  H       38.922     736.391    -296.654
  H       44.062     738.300    -302.743
  H       35.692     742.463    -295.920
  H       37.446     738.982    -301.061
  H       38.890     739.769    -297.596
  H       37.164     737.547    -297.649
  H       37.859     736.932    -299.907
  H       40.746     737.325    -298.858
  H       40.552     736.235    -301.089
  H       33.035     743.078    -299.485
  H       33.656     742.077    -300.794
  H       39.586     737.616    -301.679
  P       37.947     734.387    -299.418
  C       39.881     732.781    -300.137
  O       38.850     733.689    -300.550
  O       36.890     735.233    -300.254
  O       37.299     733.456    -298.444
  H       36.054     734.732    -300.373
  H       40.389     732.403    -300.999
  H       39.444     731.968    -299.595
  H       40.578     733.295    -299.509

 6  7  8  9  10  11  12  13  14  15  25  28  32  33  34  35 0
 6-311+G(2d,p)
 ****
 36  39  40 0
 6-311+G(2d,p)
 ****
 1  2  3  4  5  16  17  18  19  20  21  22  23  24 0
 3-21G
 ****
 26  27  29  30  31  37  38  41  42  43  44  45  46  47 0
 3-21G
 ****
 48 0
 3-21G
 ****


