%nproc=1
%NoSave
%Mem=1900MB
#P OB98/GEN NMR

erre ene a

0 1
  C      465.142    1308.240    -685.236
  O      465.432    1307.327    -684.199
  H      464.114    1308.581    -685.125
  H      465.254    1307.752    -686.207
  H      465.809    1309.107    -685.168
  P      466.872    1306.618    -684.161
  C      467.632    1307.915    -682.057
  O      467.872    1307.652    -683.438
  C      468.458    1309.136    -681.609
  O      468.164    1310.215    -682.537
  C      468.092    1309.605    -680.197
  O      469.218    1309.714    -679.332
  C      467.246    1310.849    -680.437
  O      467.253    1311.788    -679.380
  C      467.798    1311.388    -681.763
  N      466.870    1312.218    -682.514
  C      466.599    1313.487    -682.009
  O      467.105    1313.980    -681.002
  N      465.699    1314.236    -682.728
  C      465.052    1313.844    -683.870
  O      464.267    1314.560    -684.477
  C      465.360    1312.488    -684.341
  C      466.235    1311.740    -683.651
  O      467.352    1306.078    -685.460
  O      466.709    1305.459    -683.073
  H      466.874    1311.341    -678.597
  H      466.602    1304.599    -683.530
  H      465.501    1315.167    -682.379
  H      464.863    1312.118    -685.228
  H      466.492    1310.735    -683.967
  H      468.707    1311.975    -681.583
  H      466.202    1310.545    -680.589
  H      467.453    1308.859    -679.687
  H      469.518    1308.899    -681.695
  H      467.920    1307.026    -681.492
  H      466.564    1308.113    -681.900
  P      470.086    1308.486    -678.803
  C      472.114    1308.908    -680.399
  O      471.081    1308.042    -679.978
  O      469.317    1307.406    -678.110
  O      471.062    1309.169    -677.711
  H      471.210    1308.493    -677.019
  H      472.670    1308.443    -681.186
  H      472.765    1309.113    -679.575
  H      471.689    1309.823    -680.755

 6  7  8  9  10  11  12  13  14  15  16  26  31  32  33  34  35 0
 6-311+G(2d,p)
 ****
 36  37 0
 6-311+G(2d,p)
 ****
 1  2  3  4  5  17  18  19  20  21  22  23  24  25 0
 3-21G
 ****
 27  28  29  30  38  39  40  41  42  43  44  45 0
 3-21G
 ****


