%nproc=1
%NoSave
%Mem=1900MB
#P OB98/GEN NMR

erre ene a

0 1
  C        3.867     109.917     -73.072
  O        3.999     110.995     -72.169
  P        5.298     111.150     -71.249
  C        6.373     113.009     -72.647
  O        6.500     111.677     -72.170
  C        7.552     113.874     -72.206
  O        8.792     113.246     -72.622
  C        7.532     115.299     -72.775
  O        8.013     116.172     -71.748
  C        8.525     115.223     -73.919
  O        9.043     116.499     -74.271
  C        9.548     114.237     -73.345
  N       10.374     113.629     -74.376
  C       11.594     114.247     -74.654
  O       11.872     115.329     -74.136
  N       12.458     113.629     -75.524
  C       12.056     112.594     -76.196
  N       12.965     111.973     -76.995
  C       10.680     112.066     -76.108
  C        9.914     112.595     -75.158
  O        5.633     109.954     -70.421
  O        4.975     112.414     -70.321
  H        5.101     112.164     -69.385
  H        9.958     116.388     -74.604
  H       10.354     111.284     -76.777
  H        8.898     112.257     -74.996
  H       10.201     114.739     -72.619
  H        8.037     114.798     -74.803
  H        6.533     115.618     -73.084
  H        7.558     113.908     -71.110
  H       13.908     112.339     -76.999
  H        5.451     113.430     -72.240
  H       12.847     111.007     -77.297
  H        6.284     113.006     -73.739
  P        7.666     117.737     -71.855
  C        5.437     117.161     -70.659
  O        6.083     117.903     -71.671
  O        7.848     118.000     -73.430
  O        8.540     118.669     -71.082
  H        8.057     118.942     -73.571
  H        4.362     117.346     -70.723
  H        5.786     117.479     -69.673
  H        5.617     116.091     -70.790
  H        2.933     109.996     -73.588
  H        3.899     108.994     -72.532
  H        4.669     109.944     -73.780

 3  4  5  6  7  8  9  10  11  12  13  24  27  28  29  30  32 0
 6-311+G(2d,p)
 ****
 34  35 0
 6-311+G(2d,p)
 ****
 1  2  14  15  16  17  18  19  20  21  22  23  25  26 0
 3-21G
 ****
 31  33  36  37  38  39  40  41  42  43  44  45  46 0
 3-21G
 ****


