%nproc=1
%NoSave
%Mem=1900MB
#P OB98/GEN NMR

erre ene a

0 1
  C      -15.268      19.700      79.047
  O      -15.900      20.011      77.822
  H      -15.089      18.623      79.086
  H      -15.917      19.979      79.880
  H      -14.311      20.221      79.127
  P      -16.173      21.563      77.521
  C      -15.044      21.587      75.186
  O      -16.253      21.707      75.921
  C      -15.290      21.832      73.699
  O      -15.592      20.559      73.054
  C      -16.458      22.786      73.400
  O      -16.122      23.546      72.233
  C      -17.586      21.834      73.036
  O      -18.605      22.463      72.262
  C      -16.800      20.755      72.295
  N      -19.940      18.234      69.279
  C      -19.305      19.447      69.100
  N      -19.542      20.092      67.937
  N      -18.507      19.984      69.984
  C      -18.334      19.214      71.086
  C      -18.907      18.002      71.386
  C      -19.812      17.431      70.409
  O      -20.418      16.371      70.520
  N      -18.501      17.556      72.619
  C      -17.685      18.495      73.060
  N      -17.552      19.522      72.165
  O      -14.772      22.243      77.890
  O      -17.307      22.172      78.274
  H      -18.180      22.866      71.477
  H      -14.782      22.557      78.814
  H      -20.556      17.872      68.572
  H      -17.172      18.484      74.012
  H      -16.522      21.064      71.280
  H      -18.048      21.429      73.945
  H      -20.107      19.718      67.192
  H      -16.712      23.461      74.223
  H      -19.051      20.962      67.769
  H      -14.361      22.201      73.248
  H      -14.645      20.575      75.321
  H      -14.317      22.310      75.569
  P      -16.198      25.143      72.329
  C      -13.975      25.297      73.670
  O      -14.709      25.702      72.524
  O      -16.856      25.383      73.769
  O      -16.996      25.786      71.243
  H      -17.343      26.227      73.774
  H      -13.007      25.753      73.653
  H      -13.868      24.232      73.667
  H      -14.497      25.600      74.553

 6  7  8  9  10  11  12  13  14  15  26  29  33  34 0
 6-311+G(2d,p)
 ****
 36  38  39  40  41 0
 6-311+G(2d,p)
 ****
 1  2  3  4  5  16  17  18  19  20  21  22  23  24  25 0
 3-21G
 ****
 27  28  30  31  32  35  37  42  43  44  45  46  47 0
 3-21G
 ****
 48  49 0
 3-21G
 ****


