%nproc=1
%NoSave
%Mem=1900MB
#P OB98/GEN NMR

erre ene a

0 1
  C      203.985    -382.509     -11.321
  O      203.607    -383.867     -11.406
  P      204.244    -384.810     -12.538
  C      204.080    -384.885     -15.134
  O      203.519    -384.439     -13.917
  C      203.739    -383.928     -16.280
  O      204.310    -382.632     -15.972
  C      204.321    -384.320     -17.638
  O      203.609    -383.620     -18.661
  C      205.728    -383.780     -17.538
  O      206.335    -383.615     -18.821
  C      205.537    -382.470     -16.722
  N      206.669    -382.224     -15.817
  C      207.849    -381.784     -16.397
  O      207.951    -381.523     -17.597
  N      208.938    -381.727     -15.570
  C      208.959    -382.111     -14.264
  O      209.981    -382.350     -13.634
  C      207.636    -382.343     -13.652
  C      206.571    -382.414     -14.449
  O      203.659    -386.253     -12.168
  O      205.734    -384.810     -12.583
  H      205.813    -382.916     -19.288
  H      204.305    -386.756     -11.640
  H      209.824    -381.547     -16.026
  H      207.591    -382.506     -12.578
  H      205.587    -382.633     -14.034
  H      205.430    -381.605     -17.384
  H      206.346    -384.488     -16.973
  H      204.308    -385.398     -17.836
  H      202.653    -383.810     -16.348
  H      203.716    -385.896     -15.351
  H      205.169    -384.961     -15.041
  P      203.865    -384.052     -20.187
  C      206.020    -384.453     -21.521
  O      205.405    -383.709     -20.494
  O      202.880    -383.552     -21.184
  O      203.871    -385.656     -20.111
  H      203.727    -386.031     -21.001
  H      206.803    -383.841     -21.983
  H      205.299    -384.754     -22.295
  H      206.484    -385.349     -21.096
  H      203.461    -382.043     -10.513
  H      203.741    -382.013     -12.237
  H      205.039    -382.442     -11.149

 3  4  5  6  7  8  9  10  11  12  13  23  28  29  30  31  32 0
 6-311+G(2d,p)
 ****
 33  34 0
 6-311+G(2d,p)
 ****
 1  2  14  15  16  17  18  19  20  21  22  24  25  26  27 0
 3-21G
 ****
 35  36  37  38  39  40  41  42  43  44  45 0
 3-21G
 ****


