%nproc=1
%NoSave
%Mem=1900MB
#P OB98/GEN NMR

erre ene a

0 1
  C      -51.281     -89.157      -6.756
  O      -50.298     -90.190      -6.875
  P      -50.122     -91.165      -5.615
  C      -47.614     -90.609      -5.227
  O      -48.582     -91.604      -5.535
  C      -46.463     -90.669      -6.231
  O      -46.712     -89.829      -7.380
  C      -45.137     -90.184      -5.660
  O      -44.570     -91.152      -4.794
  C      -44.347     -89.938      -6.941
  O      -43.837     -91.176      -7.464
  C      -45.428     -89.385      -7.883
  N      -46.097     -85.393     -11.012
  C      -46.169     -86.726     -11.221
  N      -45.975     -87.725     -10.335
  C      -45.690     -87.233      -9.118
  C      -45.587     -85.901      -8.754
  C      -45.801     -84.952      -9.768
  N      -45.713     -83.594      -9.558
  N      -45.276     -85.785      -7.414
  C      -45.171     -87.026      -6.984
  N      -45.424     -87.936      -7.974
  O      -50.875     -92.500      -6.071
  O      -50.691     -90.615      -4.348
  H      -44.597     -91.783      -7.567
  H      -51.709     -92.598      -5.576
  H      -46.413     -87.031     -12.235
  H      -44.916     -87.314      -5.972
  H      -45.327     -89.772      -8.903
  H      -43.494     -89.268      -6.797
  H      -45.280     -89.240      -5.120
  H      -46.362     -91.707      -6.574
  H      -47.229     -90.755      -4.215
  H      -45.803     -82.985     -10.356
  H      -45.408     -83.257      -8.657
  H      -48.101     -89.629      -5.241
  P      -44.091     -90.667      -3.343
  C      -42.011     -92.168      -3.219
  O      -43.327     -91.950      -2.747
  O      -45.467     -90.670      -2.532
  O      -43.324     -89.390      -3.326
  H      -45.983     -91.480      -2.699
  H      -41.599     -93.044      -2.712
  H      -41.382     -91.302      -2.999
  H      -42.025     -92.357      -4.295
  H      -51.302     -88.579      -7.656
  H      -51.034     -88.523      -5.930
  H      -52.243     -89.597      -6.593

 3  4  5  6  7  8  9  10  11  12  22  25  29  30  31  32 0
 6-311+G(2d,p)
 ****
 33  36  37 0
 6-311+G(2d,p)
 ****
 1  2  13  14  15  16  17  18  19  20  21  23  24  26 0
 3-21G
 ****
 27  28  34  35  38  39  40  41  42  43  44  45  46  47  48 0
 3-21G
 ****


