%nproc=1
%NoSave
%Mem=1900MB
#P OB98/GEN NMR

erre ene a

0 1
  C      221.636     391.265    -108.519
  O      222.138     390.231    -109.330
  P      222.743     388.895    -108.679
  C      225.221     389.404    -109.149
  O      224.217     389.280    -108.156
  C      226.552     389.783    -108.507
  O      226.506     391.127    -107.961
  C      226.941     388.915    -107.321
  O      227.230     387.555    -107.578
  C      228.042     389.746    -106.686
  O      229.286     389.563    -107.353
  C      227.506     391.184    -106.909
  N      226.973     391.771    -105.682
  C      227.881     392.487    -104.907
  O      229.065     392.639    -105.206
  N      227.386     393.006    -103.738
  C      226.116     392.848    -103.261
  O      225.752     393.302    -102.183
  C      225.210     392.066    -104.113
  C      225.669     391.570    -105.270
  O      222.690     387.684    -109.538
  O      221.926     388.757    -107.305
  H      229.897     390.260    -107.025
  H      222.017     389.509    -106.693
  H      228.029     393.518    -103.157
  H      224.192     391.932    -103.775
  H      225.016     390.987    -105.914
  H      228.312     391.834    -107.277
  H      228.197     389.481    -105.632
  H      226.094     388.900    -106.615
  H      227.324     389.782    -109.284
  H      224.931     390.196    -109.850
  H      225.305     388.470    -109.714
  P      226.789     386.357    -106.608
  C      228.968     386.008    -105.243
  O      227.630     386.470    -105.249
  O      226.662     385.005    -107.225
  O      225.328     386.853    -106.133
  H      224.772     386.071    -105.965
  H      229.369     386.124    -104.238
  H      229.578     386.603    -105.935
  H      229.010     384.956    -105.523
  H      221.281     392.063    -109.137
  H      222.415     391.628    -107.881
  H      220.831     390.891    -107.922

 3  4  5  6  7  8  9  10  11  12  13  23  28  29  30  31  32 0
 6-311+G(2d,p)
 ****
 33  34 0
 6-311+G(2d,p)
 ****
 1  2  14  15  16  17  18  19  20  21  22  24  25  26  27 0
 3-21G
 ****
 35  36  37  38  39  40  41  42  43  44  45 0
 3-21G
 ****


