%nproc=1
%NoSave
%Mem=1900MB
#P OB98/GEN NMR

erre ene a

0 1
  C     -110.172     -30.206     -65.038
  O     -111.212     -29.498     -64.395
  H     -109.302     -30.220     -64.375
  H     -109.894     -29.702     -65.965
  H     -110.471     -31.236     -65.244
  P     -112.656     -29.445     -65.087
  C     -112.255     -27.364     -66.557
  O     -112.468     -28.768     -66.531
  C     -112.880     -26.745     -67.812
  O     -112.678     -25.309     -67.770
  C     -112.278     -27.264     -69.120
  O     -113.311     -27.375     -70.099
  C     -111.306     -26.172     -69.519
  O     -111.077     -26.138     -70.926
  C     -112.000     -24.922     -68.982
  N     -109.622     -20.952     -71.009
  C     -110.596     -21.773     -71.540
  N     -110.985     -21.512     -72.806
  N     -111.142     -22.766     -70.888
  C     -110.673     -22.898     -69.623
  C     -109.713     -22.152     -68.983
  C     -109.102     -21.069     -69.724
  O     -108.224     -20.318     -69.311
  N     -109.497     -22.608     -67.707
  C     -110.324     -23.627     -67.578
  N     -111.051     -23.852     -68.716
  O     -113.734     -28.836     -64.248
  O     -112.981     -30.969     -65.441
  H     -111.941     -25.943     -71.351
  H     -113.640     -31.338     -64.826
  H     -109.228     -20.209     -71.558
  H     -110.432     -24.236     -66.689
  H     -112.743     -24.522     -69.682
  H     -110.342     -26.332     -69.020
  H     -110.625     -20.748     -73.358
  H     -111.787     -28.229     -68.995
  H     -111.720     -22.079     -73.209
  H     -113.962     -26.916     -67.781
  H     -111.176     -27.180     -66.555
  H     -112.692     -26.915     -65.659
  P     -114.091     -28.768     -70.254
  C     -112.347     -29.931     -71.739
  O     -113.017     -29.939     -70.487
  O     -115.233     -28.760     -71.216
  O     -114.603     -29.055     -68.760
  H     -115.471     -29.503     -68.806
  H     -111.660     -30.751     -71.781
  H     -111.812     -29.011     -71.851
  H     -113.064     -30.025     -72.528

 6  7  8  9  10  11  12  13  14  15  26  29  33  34 0
 6-311+G(2d,p)
 ****
 36  38  39  40  41 0
 6-311+G(2d,p)
 ****
 1  2  3  4  5  16  17  18  19  20  21  22  23  24  25 0
 3-21G
 ****
 27  28  30  31  32  35  37  42  43  44  45  46  47 0
 3-21G
 ****
 48  49 0
 3-21G
 ****


