%nproc=1
%NoSave
%Mem=1900MB
#P OB98/GEN NMR

erre ene a

0 1
  C     -122.936    -151.281     343.243
  O     -123.115    -152.059     342.073
  H     -123.302    -150.269     343.048
  H     -121.872    -151.228     343.494
  H     -123.499    -151.710     344.077
  P     -122.804    -153.630     342.198
  C     -121.439    -153.896     339.969
  O     -122.629    -154.157     340.693
  C     -121.737    -153.050     338.728
  O     -122.042    -151.694     339.150
  C     -120.572    -152.978     337.736
  O     -121.107    -152.941     336.413
  C     -119.925    -151.638     338.053
  O     -119.174    -151.133     336.955
  C     -121.151    -150.799     338.454
  N     -120.792    -149.645     339.277
  C     -120.587    -148.434     338.606
  O     -120.692    -148.381     337.378
  N     -120.221    -147.330     339.331
  C     -120.017    -147.434     340.605
  N     -119.633    -146.306     341.264
  C     -120.181    -148.700     341.349
  C     -120.576    -149.752     340.632
  O     -124.228    -154.211     342.641
  O     -121.686    -153.966     343.126
  H     -119.798    -150.864     336.246
  H     -124.972    -153.841     342.136
  H     -119.987    -148.739     342.412
  H     -120.729    -150.718     341.098
  H     -121.675    -150.436     337.559
  H     -119.244    -151.743     338.907
  H     -119.880    -153.818     337.833
  H     -122.641    -153.442     338.247
  H     -119.512    -145.463     340.711
  H     -120.967    -154.833     339.661
  H     -119.394    -146.283     342.245
  H     -120.747    -153.366     340.633
  P     -120.572    -153.982     335.317
  C     -119.781    -152.489     333.354
  O     -120.789    -153.366     333.850
  O     -121.025    -155.391     335.485
  O     -118.976    -153.885     335.493
  H     -118.613    -154.789     335.423
  H     -120.050    -152.154     332.374
  H     -118.847    -153.009     333.309
  H     -119.689    -151.646     334.006

 6  7  8  9  10  11  12  13  14  15  16  26  30  31  32  33  35 0
 6-311+G(2d,p)
 ****
 37  38 0
 6-311+G(2d,p)
 ****
 1  2  3  4  5  17  18  19  20  21  22  23  24  25 0
 3-21G
 ****
 27  28  29  34  36  39  40  41  42  43  44  45  46 0
 3-21G
 ****


