%nproc=1
%NoSave
%Mem=1900MB
#P OB98/GEN NMR

erre ene a

0 1
  C      216.022     -99.501    -356.119
  O      217.422     -99.794    -355.998
  P      217.941    -100.351    -354.585
  C      219.004     -98.362    -353.302
  O      217.857     -99.172    -353.494
  C      219.484     -98.395    -351.846
  O      218.419     -97.978    -350.933
  C      219.933     -99.781    -351.386
  O      220.958     -99.618    -350.381
  C      218.690    -100.336    -350.719
  O      218.993    -101.427    -349.844
  C      218.164     -99.072    -350.030
  N      214.785    -101.089    -346.861
  C      216.161    -101.238    -346.912
  N      216.724    -102.012    -345.957
  N      216.922    -100.678    -347.815
  C      216.223     -99.899    -348.693
  C      214.860     -99.682    -348.743
  C      214.043    -100.327    -347.748
  O      212.809    -100.244    -347.664
  N      214.534     -98.849    -349.791
  C      215.692     -98.578    -350.364
  N      216.747     -99.163    -349.715
  O      219.521    -100.520    -354.829
  O      217.318    -101.645    -354.180
  H      218.150    -101.698    -349.411
  H      219.745    -101.470    -354.891
  H      214.258    -101.552    -346.138
  H      215.818     -97.974    -351.262
  H      218.685     -98.861    -349.089
  H      217.990    -100.687    -351.483
  H      216.205    -102.429    -345.200
  H      220.307    -100.428    -352.188
  H      217.734    -102.105    -345.949
  H      220.308     -97.671    -351.729
  H      218.786     -97.319    -353.583
  H      219.799     -98.685    -353.988
  P      222.442     -99.296    -350.906
  C      222.569    -101.585    -352.129
  O      222.650    -100.175    -352.229
  O      223.385    -100.015    -349.828
  O      222.756     -97.837    -351.044
  H      224.256     -99.591    -349.796
  H      221.607    -101.919    -352.519
  H      222.688    -101.932    -351.092
  H      223.374    -102.023    -352.736
  H      215.817     -99.141    -357.105
  H      215.751     -98.754    -355.403
  H      215.455    -100.390    -355.939

 3  4  5  6  7  8  9  10  11  12  23  26  30  31 0
 6-311+G(2d,p)
 ****
 33  35  36  37  38 0
 6-311+G(2d,p)
 ****
 1  2  13  14  15  16  17  18  19  20  21  22  24  25 0
 3-21G
 ****
 27  28  29  32  34  39  40  41  42  43  44  45  46  47  48  49 0
 3-21G
 ****


