%nproc=1
%NoSave
%Mem=1900MB
#P OB98/GEN NMR

erre ene a

0 1
  C      -14.074    -163.625    -129.587
  O      -12.850    -163.523    -130.284
  H      -13.880    -164.051    -128.598
  H      -14.762    -164.283    -130.123
  H      -14.521    -162.636    -129.463
  P      -12.918    -162.972    -131.789
  C      -13.400    -164.019    -134.117
  O      -13.376    -164.204    -132.709
  C      -14.674    -164.631    -134.693
  O      -14.691    -166.055    -134.440
  C      -15.956    -164.094    -134.071
  O      -16.314    -162.825    -134.590
  C      -16.942    -165.187    -134.457
  O      -17.448    -164.994    -135.787
  C      -16.074    -166.462    -134.373
  N      -16.358    -167.243    -133.174
  C      -17.431    -168.126    -133.268
  O      -18.109    -168.255    -134.287
  N      -17.724    -168.833    -132.135
  C      -17.089    -168.718    -130.932
  O      -17.449    -169.328    -129.934
  C      -15.955    -167.779    -130.896
  C      -15.652    -167.087    -131.998
  O      -11.375    -162.765    -132.169
  O      -13.716    -161.724    -131.970
  H      -11.147    -161.818    -132.124
  H      -16.696    -165.156    -136.390
  H      -18.504    -169.470    -132.180
  H      -15.424    -167.668    -129.957
  H      -14.832    -166.376    -131.988
  H      -16.254    -167.104    -135.245
  H      -17.804    -165.202    -133.788
  H      -15.868    -164.067    -132.980
  H      -14.674    -164.475    -135.780
  H      -12.534    -164.511    -134.566
  H      -13.350    -162.947    -134.337
  P      -17.211    -161.852    -133.684
  C      -19.791    -161.761    -133.185
  O      -18.669    -162.517    -133.610
  O      -17.397    -160.603    -134.663
  O      -16.601    -161.533    -132.361
  H      -17.477    -160.860    -135.596
  H      -20.665    -162.378    -133.204
  H      -19.929    -160.927    -133.841
  H      -19.626    -161.407    -132.189

 6  7  8  9  10  11  12  13  14  15  16  27  31  32  33  34  35 0
 6-311+G(2d,p)
 ****
 36  37 0
 6-311+G(2d,p)
 ****
 1  2  3  4  5  17  18  19  20  21  22  23  24  25 0
 3-21G
 ****
 26  28  29  30  38  39  40  41  42  43  44  45 0
 3-21G
 ****


