%nproc=1
%NoSave
%Mem=1900MB
#P OB98/GEN NMR

erre ene a

0 1
  C      -44.241      32.072      54.457
  O      -44.939      30.944      54.947
  H      -44.964      32.779      54.040
  H      -43.544      31.775      53.669
  H      -43.695      32.560      55.269
  P      -44.037      29.739      55.508
  C      -44.470      28.302      53.374
  O      -43.529      28.999      54.175
  C      -43.770      27.709      52.156
  O      -43.052      28.734      51.434
  C      -42.732      26.644      52.491
  O      -43.309      25.382      52.781
  C      -41.939      26.620      51.197
  O      -42.682      25.909      50.190
  C      -41.858      28.127      50.867
  N      -40.655      28.768      51.399
  C      -39.468      28.568      50.683
  O      -39.460      27.875      49.667
  N      -38.307      29.132      51.155
  C      -38.328      29.843      52.240
  N      -37.147      30.365      52.668
  C      -39.557      30.093      53.014
  C      -40.669      29.533      52.544
  O      -45.111      28.705      56.091
  O      -42.961      30.117      56.469
  H      -42.250      26.094      49.336
  H      -44.660      27.865      56.351
  H      -39.523      30.684      53.918
  H      -41.611      29.672      53.063
  H      -41.893      28.294      49.784
  H      -40.973      26.122      51.296
  H      -42.069      26.967      53.301
  H      -44.541      27.315      51.481
  H      -36.312      30.125      52.152
  H      -45.246      29.007      53.059
  H      -37.035      30.775      53.588
  H      -44.933      27.497      53.953
  P      -42.701      24.551      54.014
  C      -41.329      23.133      52.326
  O      -41.316      23.914      53.512
  O      -43.673      23.286      54.110
  O      -42.627      25.303      55.307
  H      -43.845      23.042      55.039
  H      -40.340      22.780      52.121
  H      -41.670      23.732      51.508
  H      -41.986      22.299      52.456

 6  7  8  9  10  11  12  13  14  15  16  26  30  31  32  33  35 0
 6-311+G(2d,p)
 ****
 37  38 0
 6-311+G(2d,p)
 ****
 1  2  3  4  5  17  18  19  20  21  22  23  24  25 0
 3-21G
 ****
 27  28  29  34  36  39  40  41  42  43  44  45  46 0
 3-21G
 ****


