%nproc=1
%NoSave
%Mem=1900MB
#P OB98/GEN NMR

erre ene a

0 1
  C      160.028    -527.288    -255.975
  O      161.454    -527.372    -255.902
  P      162.188    -527.671    -254.499
  C      163.661    -529.592    -255.356
  O      163.647    -528.283    -254.793
  C      164.973    -529.953    -256.043
  O      165.067    -529.317    -257.347
  C      166.237    -529.570    -255.272
  O      167.206    -530.571    -255.583
  C      166.616    -528.240    -255.896
  O      167.965    -527.880    -255.661
  C      166.249    -528.495    -257.368
  N      166.045    -527.252    -258.112
  C      167.171    -526.471    -258.353
  O      168.270    -526.799    -257.897
  N      167.028    -525.298    -259.071
  C      165.836    -524.902    -259.419
  N      165.751    -523.732    -260.098
  C      164.607    -525.664    -259.114
  C      164.790    -526.826    -258.475
  O      161.369    -528.462    -253.528
  O      162.513    -526.214    -253.914
  H      168.178    -527.087    -256.197
  H      162.502    -526.252    -252.937
  H      163.634    -525.284    -259.395
  H      163.949    -527.463    -258.204
  H      167.043    -529.074    -257.871
  H      165.976    -527.442    -255.487
  H      166.081    -529.497    -254.192
  H      164.962    -531.034    -256.231
  H      166.617    -523.223    -260.268
  H      162.835    -529.665    -256.074
  H      164.876    -523.288    -260.319
  H      163.451    -530.319    -254.557
  P      167.845    -531.519    -254.458
  C      169.024    -532.837    -256.316
  O      169.181    -532.157    -255.085
  O      166.911    -532.511    -253.866
  O      168.403    -530.510    -253.342
  H      168.556    -531.003    -252.516
  H      170.005    -533.046    -256.747
  H      168.439    -532.243    -257.022
  H      168.508    -533.791    -256.137
  H      159.734    -527.085    -256.983
  H      159.684    -526.501    -255.337
  H      159.599    -528.216    -255.659

 3  4  5  6  7  8  9  10  11  12  13  23  27  28  29  30  32 0
 6-311+G(2d,p)
 ****
 34  35 0
 6-311+G(2d,p)
 ****
 1  2  14  15  16  17  18  19  20  21  22  24  25  26 0
 3-21G
 ****
 31  33  36  37  38  39  40  41  42  43  44  45  46 0
 3-21G
 ****


