%nproc=1
%NoSave
%Mem=1900MB
#P OB98/GEN NMR

erre ene a

0 1
  C     -238.993    -210.990     -61.515
  O     -239.052    -211.544     -60.202
  P     -240.463    -212.061     -59.646
  C     -239.866    -214.553     -59.371
  O     -240.197    -213.336     -58.710
  C     -239.425    -215.617     -58.365
  O     -238.106    -215.348     -57.849
  C     -240.324    -215.697     -57.142
  O     -241.553    -216.332     -57.459
  C     -239.437    -216.452     -56.167
  O     -239.497    -217.868     -56.403
  C     -238.033    -215.917     -56.524
  N     -237.523    -214.954     -55.560
  C     -237.270    -215.448     -54.275
  O     -237.518    -216.623     -54.002
  N     -236.762    -214.590     -53.329
  C     -236.530    -213.351     -53.640
  N     -236.022    -212.551     -52.664
  C     -236.793    -212.790     -54.978
  C     -237.291    -213.638     -55.878
  O     -241.536    -212.236     -60.670
  O     -240.859    -210.927     -58.580
  H     -238.986    -218.282     -55.681
  H     -241.834    -210.862     -58.540
  H     -236.579    -211.751     -55.190
  H     -237.516    -213.306     -56.884
  H     -237.314    -216.744     -56.581
  H     -239.741    -216.285     -55.129
  H     -240.520    -214.686     -56.760
  H     -239.407    -216.586     -58.881
  H     -235.864    -212.958     -51.752
  H     -239.065    -214.366     -60.093
  H     -235.764    -211.588     -52.821
  H     -240.735    -214.889     -59.949
  P     -242.893    -215.456     -57.352
  C     -244.030    -217.094     -59.007
  O     -244.122    -216.388     -57.786
  O     -242.752    -214.431     -58.579
  O     -243.063    -214.727     -56.059
  H     -243.154    -213.579     -58.339
  H     -244.774    -217.898     -59.001
  H     -243.040    -217.536     -59.139
  H     -244.247    -216.423     -59.839
  H     -237.988    -210.695     -61.733
  H     -239.635    -210.136     -61.571
  H     -239.312    -211.723     -62.226

 3  4  5  6  7  8  9  10  11  12  13  23  27  28  29  30  32 0
 6-311+G(2d,p)
 ****
 34  35 0
 6-311+G(2d,p)
 ****
 1  2  14  15  16  17  18  19  20  21  22  24  25  26 0
 3-21G
 ****
 31  33  36  37  38  39  40  41  42  43  44  45  46 0
 3-21G
 ****


