%nproc=1
%NoSave
%Mem=1900MB
#P OB98/GEN NMR

erre ene a

0 1
  C     1547.036    -537.933    -114.675
  O     1547.642    -538.188    -113.413
  H     1547.331    -538.726    -115.366
  H     1547.383    -536.983    -115.072
  H     1545.946    -537.921    -114.578
  P     1547.370    -537.153    -112.218
  C     1547.714    -537.173    -109.656
  O     1547.784    -537.921    -110.869
  C     1548.549    -537.854    -108.577
  O     1547.900    -539.060    -108.115
  C     1549.957    -538.270    -109.038
  O     1550.823    -537.149    -109.008
  C     1550.281    -539.318    -108.004
  O     1550.647    -538.688    -106.746
  C     1548.926    -540.041    -107.851
  N     1548.697    -545.112    -108.262
  C     1548.964    -544.313    -107.160
  N     1549.266    -544.966    -106.020
  N     1548.967    -543.002    -107.189
  C     1548.735    -542.478    -108.418
  C     1548.471    -543.176    -109.587
  C     1548.420    -544.611    -109.536
  O     1548.166    -545.351    -110.485
  N     1548.344    -542.308    -110.653
  C     1548.492    -541.110    -110.103
  N     1548.743    -541.179    -108.762
  O     1545.997    -536.540    -112.177
  O     1548.522    -536.051    -112.383
  H     1550.996    -539.409    -106.182
  H     1548.214    -535.308    -112.938
  H     1548.740    -546.107    -108.195
  H     1548.425    -540.161    -110.664
  H     1548.769    -540.419    -106.839
  H     1551.109    -539.973    -108.290
  H     1549.549    -545.932    -106.011
  H     1549.929    -538.742    -110.025
  H     1549.503    -544.412    -105.202
  H     1548.607    -537.172    -107.718
  H     1546.660    -537.121    -109.350
  H     1548.090    -536.159    -109.822
  P     1552.077    -537.050    -110.010
  C     1553.719    -535.155    -110.666
  O     1552.507    -535.496    -109.999
  O     1551.809    -537.615    -111.390
  O     1553.284    -537.757    -109.246
  H     1553.339    -538.724    -109.408
  H     1553.887    -534.101    -110.584
  H     1553.646    -535.426    -111.699
  H     1554.534    -535.682    -110.216

 6  7  8  9  10  11  12  13  14  15  26  29  33  34 0
 6-311+G(2d,p)
 ****
 36  38  39  40  41 0
 6-311+G(2d,p)
 ****
 1  2  3  4  5  16  17  18  19  20  21  22  23  24  25 0
 3-21G
 ****
 27  28  30  31  32  35  37  42  43  44  45  46  47 0
 3-21G
 ****
 48  49 0
 3-21G
 ****


