%nproc=1
%NoSave
%Mem=1900MB
#P OB98/GEN NMR

erre ene a

0 1
  C      -58.024     -88.493      81.103
  O      -58.928     -88.641      80.029
  H      -57.138     -89.101      80.901
  H      -58.475     -88.831      82.039
  H      -57.713     -87.447      81.197
  P      -60.364     -87.935      80.138
  C      -61.790     -89.913      79.280
  O      -61.294     -88.610      79.020
  C      -62.236     -90.596      77.980
  O      -63.404     -89.900      77.460
  C      -61.168     -90.583      76.873
  O      -61.368     -91.755      76.072
  C      -61.552     -89.335      76.102
  O      -60.919     -89.286      74.849
  C      -63.079     -89.453      76.126
  N      -63.741     -88.205      75.789
  C      -64.067     -88.020      74.443
  O      -63.781     -88.882      73.610
  N      -64.679     -86.852      74.066
  C      -64.888     -85.923      74.943
  N      -65.484     -84.781      74.502
  C      -64.505     -86.053      76.367
  C      -63.948     -87.211      76.717
  O      -60.357     -86.442      80.129
  O      -60.971     -88.506      81.507
  H      -61.168     -90.065      74.299
  H      -60.925     -87.819      82.199
  H      -64.683     -85.240      77.056
  H      -63.632     -87.399      77.738
  H      -63.420     -90.229      75.427
  H      -61.238     -88.437      76.645
  H      -60.148     -90.562      77.264
  H      -62.552     -91.621      78.213
  H      -65.721     -84.732      73.519
  H      -62.641     -89.810      79.960
  H      -65.676     -83.984      75.091
  H      -61.019     -90.520      79.768
  P      -60.548     -93.114      76.295
  C      -60.616     -93.792      73.804
  O      -60.933     -94.161      75.144
  O      -60.652     -93.667      77.680
  O      -59.025     -92.740      75.958
  H      -58.434     -93.294      76.502
  H      -60.922     -94.571      73.138
  H      -59.560     -93.642      73.716
  H      -61.128     -92.886      73.553

 6  7  8  9  10  11  12  13  14  15  16  26  30  31  32  33  35 0
 6-311+G(2d,p)
 ****
 37  38 0
 6-311+G(2d,p)
 ****
 1  2  3  4  5  17  18  19  20  21  22  23  24  25 0
 3-21G
 ****
 27  28  29  34  36  39  40  41  42  43  44  45  46 0
 3-21G
 ****


