%nproc=1
%NoSave
%Mem=1900MB
#P OB98/GEN NMR

erre ene a

0 1
  C      -21.111       6.168       4.935
  O      -19.900       5.439       4.829
  P      -19.559       4.749       3.419
  C      -19.372       2.367       4.458
  O      -18.731       3.415       3.748
  C      -18.353       1.577       5.282
  O      -17.288       1.136       4.400
  C      -17.699       2.364       6.423
  O      -17.428       1.429       7.474
  C      -16.394       2.834       5.811
  O      -15.414       3.163       6.790
  C      -16.044       1.635       4.936
  N      -11.233       1.695       3.379
  C      -11.762       1.338       4.607
  N      -10.886       0.877       5.524
  N      -13.032       1.424       4.904
  C      -13.787       1.887       3.881
  C      -13.378       2.308       2.638
  C      -11.977       2.173       2.309
  O      -11.479       2.395       1.208
  N      -14.424       2.797       1.903
  C      -15.476       2.596       2.670
  N      -15.147       2.004       3.859
  O      -18.463       5.732       2.798
  O      -20.724       4.534       2.505
  H      -15.697       3.991       7.230
  H      -18.876       6.393       2.210
  H      -10.249       1.590       3.202
  H      -16.492       2.850       2.417
  H      -15.566       0.826       5.504
  H      -16.572       3.728       5.201
  H       -9.900       0.756       5.353
  H      -18.314       3.188       6.795
  H      -11.251       0.578       6.420
  H      -18.847       0.679       5.671
  H      -19.840       1.688       3.739
  H      -20.153       2.783       5.101
  P      -18.497       1.306       8.662
  C      -16.831       1.906      10.551
  O      -17.697       0.936       9.997
  O      -19.267      -0.055       8.307
  O      -19.456       2.447       8.764
  H      -20.194       0.008       8.603
  H      -16.687       1.683      11.611
  H      -17.243       2.915      10.457
  H      -15.863       1.861      10.046
  H      -21.202       6.567       5.924
  H      -21.937       5.518       4.736
  H      -21.108       6.969       4.226

 3  4  5  6  7  8  9  10  11  12  23  26  30  31 0
 6-311+G(2d,p)
 ****
 33  35  36  37  38 0
 6-311+G(2d,p)
 ****
 1  2  13  14  15  16  17  18  19  20  21  22  24  25 0
 3-21G
 ****
 27  28  29  32  34  39  40  41  42  43  44  45  46  47  48  49 0
 3-21G
 ****


