%nproc=1
%NoSave
%Mem=1900MB
#P OB98/GEN NMR

erre ene a

0 1
  C      -64.432     144.222    -133.504
  O      -64.785     145.567    -133.757
  P      -65.612     146.395    -132.663
  C      -67.861     146.178    -131.430
  O      -67.047     145.695    -132.501
  C      -69.237     146.591    -131.956
  O      -69.124     147.767    -132.790
  C      -69.908     145.538    -132.829
  O      -70.450     144.497    -132.035
  C      -70.945     146.382    -133.561
  O      -72.107     146.584    -132.738
  C      -70.193     147.708    -133.762
  N      -71.339     147.772    -138.738
  C      -72.073     147.453    -137.647
  N      -71.678     147.424    -136.352
  C      -70.379     147.747    -136.246
  C      -69.500     148.063    -137.270
  C      -70.033     148.095    -138.574
  N      -69.312     148.484    -139.684
  N      -68.235     148.313    -136.761
  C      -68.357     148.136    -135.457
  N      -69.645     147.859    -135.094
  O      -65.653     147.877    -132.880
  O      -64.879     146.049    -131.283
  H      -72.387     145.711    -132.405
  H      -64.529     146.868    -130.883
  H      -73.110     147.191    -137.838
  H      -67.549     148.212    -134.741
  H      -70.837     148.578    -133.574
  H      -71.285     145.920    -134.495
  H      -69.191     145.139    -133.560
  H      -69.872     146.845    -131.093
  H      -67.361     147.038    -130.978
  H      -69.829     148.609    -140.543
  H      -68.450     149.007    -139.543
  H      -67.965     145.393    -130.674
  P      -70.386     142.983    -132.559
  C      -71.362     141.701    -134.556
  O      -71.462     142.852    -133.740
  O      -70.460     141.928    -131.502
  O      -68.991     142.915    -133.346
  H      -68.612     142.016    -133.271
  H      -70.544     141.830    -135.273
  H      -72.300     141.573    -135.106
  H      -71.177     140.804    -133.954
  H      -63.887     143.833    -134.339
  H      -65.319     143.642    -133.356
  H      -63.823     144.172    -132.626

 3  4  5  6  7  8  9  10  11  12  22  25  29  30  31  32 0
 6-311+G(2d,p)
 ****
 33  36  37 0
 6-311+G(2d,p)
 ****
 1  2  13  14  15  16  17  18  19  20  21  23  24  26 0
 3-21G
 ****
 27  28  34  35  38  39  40  41  42  43  44  45  46  47  48 0
 3-21G
 ****


