%nproc=1
%NoSave
%Mem=1900MB
#P OB98/GEN NMR

erre ene a

0 1
  C      292.558     473.112      91.759
  O      291.722     474.080      92.367
  P      290.482     474.712      91.573
  C      291.247     477.146      91.855
  O      290.963     476.103      90.932
  C      289.959     477.782      92.391
  O      290.234     478.423      93.668
  C      289.344     478.842      91.461
  O      287.924     478.695      91.534
  C      289.782     480.152      92.081
  O      288.950     481.235      91.711
  C      289.749     479.782      93.577
  N      290.547     480.686      94.385
  C      289.898     481.826      94.886
  O      288.748     482.088      94.524
  N      290.574     482.635      95.765
  C      291.835     482.433      95.978
  N      292.460     483.218      96.904
  C      292.617     481.391      95.275
  C      291.908     480.539      94.537
  O      289.208     474.802      92.356
  O      290.297     473.767      90.293
  H      289.375     473.464      90.246
  H      288.031     481.044      92.001
  H      293.694     481.339      95.384
  H      292.378     479.715      93.997
  H      288.716     479.780      93.948
  H      290.809     480.380      91.772
  H      289.659     478.720      90.417
  H      289.237     476.979      92.580
  H      291.884     483.892      97.399
  H      291.829     477.910      91.335
  H      293.326     482.932      97.360
  H      291.862     476.760      92.676
  P      287.146     478.059      90.282
  C      285.748     480.238      90.065
  O      286.543     479.261      89.412
  O      285.833     477.456      90.980
  O      287.862     476.975      89.531
  H      285.488     476.721      90.431
  H      285.369     480.938      89.318
  H      286.351     480.794      90.784
  H      284.900     479.766      90.564
  H      293.322     472.817      92.448
  H      293.009     473.530      90.883
  H      291.975     472.257      91.486

 3  4  5  6  7  8  9  10  11  12  13  24  27  28  29  30  32 0
 6-311+G(2d,p)
 ****
 34  35 0
 6-311+G(2d,p)
 ****
 1  2  14  15  16  17  18  19  20  21  22  23  25  26 0
 3-21G
 ****
 31  33  36  37  38  39  40  41  42  43  44  45  46 0
 3-21G
 ****


