%nproc=1
%NoSave
%Mem=1900MB
#P OB98/GEN NMR

erre ene a

0 1
  C      425.099      76.870    -220.337
  O      425.431      76.043    -219.238
  H      425.939      77.542    -220.532
  H      424.216      77.471    -220.110
  H      424.922      76.265    -221.228
  P      424.343      74.989    -218.719
  C      423.354      76.828    -217.200
  O      423.873      75.505    -217.275
  C      423.074      77.203    -215.746
  O      422.553      78.542    -215.666
  C      422.057      76.301    -215.050
  O      422.672      75.104    -214.599
  C      421.627      77.201    -213.905
  O      422.641      77.203    -212.883
  C      421.571      78.580    -214.590
  N      418.950      82.145    -217.083
  C      420.232      82.185    -216.567
  N      420.902      83.351    -216.710
  N      420.804      81.177    -215.957
  C      419.994      80.102    -215.826
  C      418.702      79.949    -216.277
  C      418.106      81.046    -217.009
  O      416.980      81.044    -217.503
  N      418.169      78.754    -215.876
  C      419.153      78.160    -215.228
  N      420.284      78.943    -215.161
  O      424.759      73.550    -218.744
  O      423.061      75.260    -219.640
  H      422.331      77.793    -212.171
  H      423.065      74.686    -220.428
  H      418.561      82.955    -217.534
  H      419.104      77.168    -214.792
  H      421.856      79.392    -213.911
  H      420.695      76.877    -213.435
  H      420.465      84.202    -217.030
  H      421.191      76.100    -215.691
  H      421.819      83.416    -216.287
  H      424.031      77.199    -215.209
  H      422.431      76.852    -217.784
  H      424.063      77.543    -217.632
  P      422.053      73.662    -214.943
  C      420.536      73.476    -212.855
  O      421.696      73.005    -213.523
  O      422.897      72.812    -215.825
  O      420.605      73.982    -215.533
  H      420.620      74.183    -216.504
  H      420.421      72.954    -211.928
  H      419.677      73.305    -213.469
  H      420.635      74.524    -212.664

 6  7  8  9  10  11  12  13  14  15  26  29  33  34 0
 6-311+G(2d,p)
 ****
 36  38  39  40  41 0
 6-311+G(2d,p)
 ****
 1  2  3  4  5  16  17  18  19  20  21  22  23  24  25 0
 3-21G
 ****
 27  28  30  31  32  35  37  42  43  44  45  46  47 0
 3-21G
 ****
 48  49 0
 3-21G
 ****


