%nproc=1
%NoSave
%Mem=1900MB
#P OB98/GEN NMR

erre ene a

0 1
  C     -175.364    -112.087    -198.300
  O     -175.044    -110.771    -197.858
  P     -176.240    -109.739    -197.588
  C     -176.700    -107.961    -195.683
  O     -175.790    -108.655    -196.504
  C     -175.996    -107.548    -194.371
  O     -175.500    -108.721    -193.680
  C     -174.800    -106.624    -194.605
  O     -175.185    -105.264    -194.670
  C     -173.922    -106.947    -193.405
  O     -174.420    -106.294    -192.227
  C     -174.114    -108.480    -193.291
  N     -173.248    -109.357    -194.112
  C     -172.973    -110.654    -193.676
  O     -173.407    -111.144    -192.638
  N     -172.177    -111.410    -194.504
  C     -171.776    -111.078    -195.766
  O     -171.114    -111.811    -196.485
  C     -172.215    -109.752    -196.234
  C     -172.905    -108.969    -195.398
  O     -177.337    -110.615    -196.828
  O     -176.793    -109.098    -198.832
  H     -175.168    -106.831    -191.893
  H     -178.146    -110.690    -197.366
  H     -171.916    -112.328    -194.170
  H     -171.957    -109.470    -197.248
  H     -173.235    -107.987    -195.740
  H     -174.009    -108.810    -192.257
  H     -172.907    -106.581    -193.552
  H     -174.255    -106.923    -195.509
  H     -176.732    -107.050    -193.728
  H     -177.569    -108.584    -195.452
  H     -177.074    -107.078    -196.208
  P     -174.995    -104.448    -196.038
  C     -176.779    -103.106    -197.300
  O     -176.169    -103.344    -196.050
  O     -174.868    -105.266    -197.283
  O     -173.687    -103.555    -195.774
  H     -172.883    -103.995    -196.133
  H     -177.660    -102.460    -197.142
  H     -177.109    -104.046    -197.762
  H     -176.078    -102.593    -197.965
  H     -174.462    -112.648    -198.433
  H     -175.891    -112.033    -199.230
  H     -175.979    -112.569    -197.569

 3  4  5  6  7  8  9  10  11  12  13  23  28  29  30  31  32 0
 6-311+G(2d,p)
 ****
 33  34 0
 6-311+G(2d,p)
 ****
 1  2  14  15  16  17  18  19  20  21  22  24  25  26  27 0
 3-21G
 ****
 35  36  37  38  39  40  41  42  43  44  45 0
 3-21G
 ****


