%nproc=1
%NoSave
%Mem=1900MB
#P OB98/GEN NMR

erre ene a

0 1
  C      962.087      29.228    -215.294
  O      963.463      29.533    -215.425
  P      964.212      29.280    -216.823
  C      964.887      31.741    -217.137
  O      964.166      30.642    -217.670
  C      966.040      32.129    -218.057
  O      965.551      32.439    -219.383
  C      966.794      33.369    -217.616
  O      967.622      33.123    -216.490
  C      967.552      33.727    -218.893
  O      968.725      32.914    -219.041
  C      966.504      33.359    -219.972
  N      965.842      34.531    -220.525
  C      966.328      34.985    -221.767
  O      967.310      34.452    -222.277
  N      965.685      36.033    -222.371
  C      964.741      36.655    -221.750
  N      964.099      37.652    -222.424
  C      964.307      36.311    -220.380
  C      964.881      35.238    -219.848
  O      963.779      28.061    -217.566
  O      965.764      29.180    -216.413
  H      966.136      28.361    -216.811
  H      969.310      33.123    -218.291
  H      963.558      36.904    -219.879
  H      964.607      34.892    -218.846
  H      966.989      32.806    -220.790
  H      967.865      34.773    -218.918
  H      966.087      34.172    -217.380
  H      966.721      31.271    -218.131
  H      964.409      37.851    -223.367
  H      965.287      31.456    -216.155
  H      963.160      37.974    -222.173
  H      964.207      32.595    -216.996
  P      967.797      34.319    -215.439
  C      967.073      32.992    -213.343
  O      966.783      34.055    -214.227
  O      967.169      35.570    -216.195
  O      969.208      34.582    -215.036
  H      967.683      36.376    -215.988
  H      966.512      33.160    -212.407
  H      968.137      32.944    -213.107
  H      966.740      32.043    -213.779
  H      961.763      29.460    -214.301
  H      961.933      28.187    -215.485
  H      961.525      29.807    -215.997

 3  4  5  6  7  8  9  10  11  12  13  24  27  28  29  30  32 0
 6-311+G(2d,p)
 ****
 34  35 0
 6-311+G(2d,p)
 ****
 1  2  14  15  16  17  18  19  20  21  22  23  25  26 0
 3-21G
 ****
 31  33  36  37  38  39  40  41  42  43  44  45  46 0
 3-21G
 ****


