%nproc=1
%NoSave
%Mem=1900MB
#P OB98/GEN NMR

erre ene a

0 1
  C     -162.032    -575.977     148.791
  O     -162.460    -575.778     147.461
  H     -162.563    -575.271     149.438
  H     -160.960    -575.786     148.874
  H     -162.258    -576.993     149.128
  P     -161.974    -576.808     146.332
  C     -163.980    -577.134     144.739
  O     -162.771    -576.435     144.992
  C     -164.872    -576.344     143.774
  O     -165.358    -575.151     144.464
  C     -164.153    -575.866     142.495
  O     -165.142    -575.810     141.456
  C     -163.716    -574.474     142.917
  O     -163.261    -573.700     141.837
  C     -164.988    -574.019     143.643
  N     -164.850    -572.819     144.457
  C     -165.098    -571.594     143.848
  O     -165.430    -571.449     142.673
  N     -164.948    -570.492     144.651
  C     -164.597    -570.495     145.969
  O     -164.511    -569.477     146.643
  C     -164.340    -571.821     146.550
  C     -164.482    -572.902     145.785
  O     -162.013    -578.250     146.709
  O     -160.482    -576.325     146.001
  H     -159.842    -576.916     146.445
  H     -162.720    -572.957     142.180
  H     -165.129    -569.591     144.226
  H     -164.053    -571.859     147.593
  H     -164.309    -573.894     146.193
  H     -165.798    -573.870     142.919
  H     -162.874    -574.545     143.610
  H     -163.337    -576.526     142.190
  H     -165.752    -576.950     143.529
  H     -164.500    -577.275     145.692
  H     -163.746    -578.116     144.314
  P     -164.919    -576.430     139.991
  C     -167.317    -577.276     139.507
  O     -166.305    -576.323     139.187
  O     -164.332    -577.801     139.997
  O     -163.957    -575.393     139.238
  H     -163.454    -575.859     138.545
  H     -168.182    -577.094     138.904
  H     -167.578    -577.186     140.541
  H     -166.951    -578.263     139.316

 6  7  8  9  10  11  12  13  14  15  16  27  31  32  33  34  35 0
 6-311+G(2d,p)
 ****
 36  37 0
 6-311+G(2d,p)
 ****
 1  2  3  4  5  17  18  19  20  21  22  23  24  25 0
 3-21G
 ****
 26  28  29  30  38  39  40  41  42  43  44  45 0
 3-21G
 ****


