%nproc=1
%NoSave
%Mem=1900MB
#P OB98/GEN NMR

erre ene a

0 1
  C      123.552    -179.657     -11.796
  O      122.203    -179.246     -11.789
  H      123.585    -180.739     -11.633
  H      124.110    -179.169     -10.993
  H      124.015    -179.433     -12.762
  P      121.864    -177.674     -11.815
  C      120.825    -178.042      -9.498
  O      121.732    -177.255     -10.260
  C      120.153    -177.214      -8.399
  O      121.167    -176.673      -7.509
  C      119.323    -176.039      -8.929
  O      118.055    -176.014      -8.265
  C      120.144    -174.815      -8.542
  O      119.344    -173.639      -8.438
  C      120.806    -175.302      -7.246
  N      121.964    -174.500      -6.862
  C      122.139    -174.265      -5.494
  O      121.314    -174.693      -4.682
  N      123.212    -173.520      -5.080
  C      124.016    -173.007      -5.958
  N      125.059    -172.269      -5.484
  C      123.848    -173.189      -7.415
  C      122.815    -173.948      -7.793
  O      120.699    -177.298     -12.669
  O      123.236    -176.975     -12.257
  H      119.938    -172.877      -8.252
  H      123.045    -176.066     -12.600
  H      124.538    -172.733      -8.109
  H      122.617    -174.143      -8.844
  H      120.087    -175.290      -6.414
  H      120.912    -174.636      -9.307
  H      119.151    -176.082     -10.000
  H      119.541    -177.892      -7.785
  H      125.140    -172.169      -4.478
  H      121.373    -178.885      -9.060
  H      125.744    -171.816      -6.072
  H      120.053    -178.427     -10.174
  P      116.798    -176.519      -9.129
  C      115.898    -174.100      -9.381
  O      116.299    -175.293     -10.040
  O      115.642    -176.677      -8.031
  O      117.045    -177.798      -9.862
  H      115.539    -177.616      -7.784
  H      115.593    -173.376     -10.108
  H      116.719    -173.712      -8.814
  H      115.080    -174.313      -8.725

 6  7  8  9  10  11  12  13  14  15  16  26  30  31  32  33  35 0
 6-311+G(2d,p)
 ****
 37  38 0
 6-311+G(2d,p)
 ****
 1  2  3  4  5  17  18  19  20  21  22  23  24  25 0
 3-21G
 ****
 27  28  29  34  36  39  40  41  42  43  44  45  46 0
 3-21G
 ****


