%nproc=1
%NoSave
%Mem=1900MB
#P OB98/GEN NMR

erre ene a

0 1
  C     1211.500     832.468    -433.265
  O     1211.709     832.250    -431.888
  H     1210.521     832.950    -433.402
  H     1211.493     831.519    -433.814
  H     1212.266     833.123    -433.678
  P     1213.036     831.485    -431.432
  C     1213.481     828.964    -430.992
  O     1212.822     829.929    -431.802
  C     1212.645     827.691    -430.883
  O     1211.387     827.986    -430.230
  C     1212.274     827.062    -432.219
  O     1213.383     826.376    -432.770
  C     1211.107     826.168    -431.801
  O     1211.585     824.966    -431.170
  C     1210.395     827.084    -430.768
  N     1209.272     827.816    -431.350
  C     1208.155     827.055    -431.706
  O     1208.144     825.833    -431.576
  N     1207.073     827.719    -432.246
  C     1207.084     828.990    -432.364
  N     1205.960     829.595    -432.900
  C     1208.198     829.849    -431.944
  C     1209.259     829.196    -431.468
  O     1213.502     831.717    -430.020
  O     1214.147     831.956    -432.498
  H     1212.078     825.243    -430.383
  H     1214.642     832.715    -432.157
  H     1208.167     830.911    -432.054
  H     1210.141     829.746    -431.128
  H     1210.011     826.478    -429.931
  H     1210.497     825.872    -432.644
  H     1211.893     827.819    -432.909
  H     1213.176     826.989    -430.244
  H     1205.210     828.954    -433.166
  H     1213.626     829.418    -430.015
  H     1205.784     830.584    -432.896
  H     1214.475     828.725    -431.417
  P     1213.551     826.189    -434.353
  C     1213.076     824.225    -435.963
  O     1212.753     824.865    -434.715
  O     1214.958     826.256    -434.844
  O     1212.604     827.334    -434.967
  H     1213.057     828.219    -434.906
  H     1212.471     823.351    -436.083
  H     1214.109     823.946    -435.964
  H     1212.889     824.902    -436.770

 6  7  8  9  10  11  12  13  14  15  16  26  30  31  32  33  35 0
 6-311+G(2d,p)
 ****
 37  38 0
 6-311+G(2d,p)
 ****
 1  2  3  4  5  17  18  19  20  21  22  23  24  25 0
 3-21G
 ****
 27  28  29  34  36  39  40  41  42  43  44  45  46 0
 3-21G
 ****


