%nproc=1
%NoSave
%Mem=1900MB
#P OB98/GEN NMR

erre ene a

0 1
  C       30.391     235.642    -123.706
  O       31.068     234.817    -124.646
  P       31.435     233.317    -124.211
  C       33.302     232.249    -122.761
  O       32.568     233.423    -123.076
  C       33.986     232.370    -121.401
  O       32.995     232.750    -120.406
  C       34.655     231.082    -120.906
  O       35.807     231.468    -120.145
  C       33.616     230.494    -119.968
  O       34.186     229.572    -119.042
  C       33.058     231.772    -119.344
  N       30.293     231.933    -115.043
  C       31.589     232.221    -115.289
  N       32.254     232.155    -116.462
  C       31.440     231.739    -117.447
  C       30.107     231.375    -117.340
  C       29.524     231.489    -116.064
  N       28.202     231.205    -115.814
  N       29.614     230.971    -118.563
  C       30.630     231.090    -119.395
  N       31.744     231.573    -118.769
  O       32.232     232.768    -125.487
  O       30.272     232.446    -123.881
  H       34.981     229.984    -118.654
  H       31.705     232.079    -125.937
  H       32.168     232.555    -114.433
  H       30.608     230.839    -120.446
  H       33.715     232.169    -118.557
  H       32.851     229.966    -120.545
  H       34.941     230.392    -121.704
  H       34.716     233.186    -121.453
  H       34.069     232.099    -123.526
  H       27.826     231.440    -114.909
  H       27.575     231.057    -116.600
  H       32.630     231.382    -122.771
  P       37.088     230.506    -120.231
  C       37.914     228.547    -118.747
  O       36.810     229.278    -119.244
  O       38.230     231.346    -119.485
  O       37.490     230.148    -121.626
  H       39.107     231.098    -119.837
  H       37.684     228.197    -117.736
  H       38.827     229.153    -118.714
  H       38.088     227.677    -119.392
  H       30.217     236.605    -124.138
  H       30.992     235.748    -122.827
  H       29.455     235.193    -123.446

 3  4  5  6  7  8  9  10  11  12  22  25  29  30  31  32 0
 6-311+G(2d,p)
 ****
 33  36  37 0
 6-311+G(2d,p)
 ****
 1  2  13  14  15  16  17  18  19  20  21  23  24  26 0
 3-21G
 ****
 27  28  34  35  38  39  40  41  42  43  44  45  46  47  48 0
 3-21G
 ****


