%nproc=1
%NoSave
%Mem=1900MB
#P OB98/GEN NMR

erre ene a

0 1
  C     -522.125    -584.104    -199.454
  O     -521.810    -584.710    -200.721
  P     -520.318    -585.252    -200.976
  C     -518.875    -584.183    -202.869
  O     -519.913    -585.082    -202.521
  C     -518.892    -583.853    -204.369
  O     -518.663    -585.064    -205.151
  C     -520.212    -583.241    -204.876
  O     -519.884    -582.338    -205.935
  C     -520.942    -584.449    -205.421
  O     -521.982    -584.110    -206.337
  C     -519.780    -585.215    -206.051
  N     -520.056    -586.629    -206.314
  C     -520.573    -586.976    -207.556
  O     -520.872    -586.161    -208.435
  N     -520.773    -588.313    -207.770
  C     -520.553    -589.317    -206.858
  O     -520.789    -590.494    -207.103
  C     -520.032    -588.879    -205.552
  C     -519.817    -587.578    -205.348
  O     -520.519    -586.844    -200.854
  O     -519.286    -584.785    -199.997
  H     -521.575    -583.613    -207.066
  H     -519.811    -587.218    -200.299
  H     -521.142    -588.583    -208.674
  H     -519.844    -589.648    -204.815
  H     -519.412    -587.251    -204.403
  H     -519.487    -584.722    -206.991
  H     -521.402    -585.005    -204.593
  H     -520.770    -582.718    -204.089
  H     -518.058    -583.180    -204.586
  H     -517.909    -584.619    -202.615
  H     -518.996    -583.256    -202.279
  P     -519.678    -580.779    -205.580
  C     -521.437    -580.176    -207.421
  O     -520.167    -579.939    -206.858
  O     -518.073    -580.680    -205.656
  O     -520.228    -580.370    -204.257
  H     -517.713    -581.120    -206.446
  H     -522.195    -580.322    -206.648
  H     -521.400    -581.047    -208.068
  H     -521.715    -579.307    -208.017
  H     -523.151    -583.800    -199.449
  H     -521.499    -583.249    -199.302
  H     -521.959    -584.812    -198.669

 3  4  5  6  7  8  9  10  11  12  13  23  28  29  30  31  32 0
 6-311+G(2d,p)
 ****
 33  34 0
 6-311+G(2d,p)
 ****
 1  2  14  15  16  17  18  19  20  21  22  24  25  26 0
 3-21G
 ****
 27  35  36  37  38  39  40  41  42  43  44  45 0
 3-21G
 ****


