%nproc=1
%NoSave
%Mem=1900MB
#P OB98/GEN NMR

erre ene a

0 1
  C     -348.629    -118.483    -602.833
  O     -349.001    -118.344    -601.475
  H     -349.341    -119.152    -603.323
  H     -347.628    -118.918    -602.910
  H     -348.654    -117.509    -603.326
  P     -348.052    -117.427    -600.561
  C     -347.622    -119.220    -598.760
  O     -348.271    -117.993    -599.070
  C     -348.659    -120.304    -598.438
  O     -349.409    -120.599    -599.641
  C     -348.038    -121.610    -597.941
  O     -348.865    -122.169    -596.922
  C     -348.069    -122.504    -599.169
  O     -348.087    -123.892    -598.831
  C     -349.330    -122.018    -599.881
  N     -351.813    -124.175    -603.776
  C     -352.167    -123.951    -602.495
  N     -351.448    -123.350    -601.519
  C     -350.261    -122.920    -602.006
  C     -349.764    -123.086    -603.282
  C     -350.597    -123.757    -604.202
  N     -350.234    -124.010    -605.504
  N     -348.491    -122.550    -603.377
  C     -348.237    -122.063    -602.178
  N     -349.270    -122.283    -601.305
  O     -348.230    -115.955    -600.718
  O     -346.601    -117.988    -600.932
  H     -347.271    -124.092    -598.328
  H     -346.596    -118.965    -600.963
  H     -353.152    -124.303    -602.207
  H     -347.320    -121.558    -601.885
  H     -350.243    -122.487    -599.496
  H     -347.181    -122.318    -599.783
  H     -347.025    -121.475    -597.565
  H     -349.375    -119.902    -597.709
  H     -346.954    -119.093    -597.901
  H     -350.898    -124.485    -606.095
  H     -349.336    -123.689    -605.839
  H     -347.025    -119.517    -599.625
  P     -348.224    -122.427    -595.476
  C     -348.234    -124.999    -595.232
  O     -348.860    -123.778    -594.867
  O     -348.202    -121.258    -594.552
  O     -346.731    -122.897    -595.839
  H     -346.116    -122.532    -595.172
  H     -348.746    -125.815    -594.767
  H     -347.214    -124.987    -594.909
  H     -348.270    -125.115    -596.295

 6  7  8  9  10  11  12  13  14  15  25  28  32  33  34  35 0
 6-311+G(2d,p)
 ****
 36  39  40 0
 6-311+G(2d,p)
 ****
 1  2  3  4  5  16  17  18  19  20  21  22  23  24 0
 3-21G
 ****
 26  27  29  30  31  37  38  41  42  43  44  45  46  47 0
 3-21G
 ****
 48 0
 3-21G
 ****


