%nproc=1
%NoSave
%Mem=1900MB
#P OB98/GEN NMR

erre ene a

0 1
  C      646.143    -466.945    -129.726
  O      646.866    -467.900    -130.501
  P      646.137    -468.567    -131.770
  C      646.070    -468.209    -134.327
  O      646.742    -467.904    -133.103
  C      646.919    -467.772    -135.536
  O      647.078    -466.321    -135.507
  C      648.343    -468.347    -135.559
  O      648.553    -469.592    -136.207
  C      649.076    -467.296    -136.410
  O      648.860    -467.565    -137.808
  C      648.380    -465.982    -136.032
  N      652.747    -463.472    -135.113
  C      652.301    -464.148    -136.197
  N      651.125    -464.783    -136.361
  C      650.365    -464.680    -135.255
  C      650.683    -464.031    -134.075
  C      651.945    -463.406    -134.019
  N      652.407    -462.728    -132.916
  N      649.666    -464.144    -133.164
  C      648.741    -464.866    -133.779
  N      649.114    -465.205    -135.051
  O      644.652    -468.628    -131.708
  O      646.774    -470.031    -131.798
  H      649.547    -468.203    -138.074
  H      646.089    -470.667    -132.065
  H      652.975    -464.164    -137.049
  H      647.800    -465.175    -133.339
  H      648.217    -465.340    -136.898
  H      650.151    -467.298    -136.242
  H      648.773    -468.364    -134.555
  H      646.390    -468.041    -136.462
  H      645.112    -467.689    -134.348
  H      653.335    -462.355    -132.945
  H      651.845    -462.727    -132.071
  H      645.856    -469.277    -134.332
  P      648.103    -470.973    -135.507
  C      646.123    -472.621    -135.996
  O      646.673    -471.329    -136.146
  O      648.132    -470.965    -134.009
  O      649.082    -472.041    -136.176
  H      648.916    -472.200    -137.126
  H      645.077    -472.592    -136.309
  H      646.163    -472.932    -134.937
  H      646.667    -473.341    -136.616
  H      646.759    -466.596    -128.924
  H      645.263    -467.403    -129.326
  H      645.865    -466.119    -130.347

 3  4  5  6  7  8  9  10  11  12  22  25  29  30  31  32 0
 6-311+G(2d,p)
 ****
 33  36  37 0
 6-311+G(2d,p)
 ****
 1  2  13  14  15  16  17  18  19  20  21  23  24  26 0
 3-21G
 ****
 27  28  34  35  38  39  40  41  42  43  44  45  46  47  48 0
 3-21G
 ****


