%nproc=1
%NoSave
%Mem=1900MB
#P OB98/GEN NMR

erre ene a

0 1
  C     -423.247    1185.326       9.356
  O     -423.405    1184.025       9.928
  H     -422.938    1186.008      10.138
  H     -424.198    1185.662       8.943
  H     -422.482    1185.292       8.586
  P     -423.902    1182.864       8.937
  C     -426.329    1182.532       9.800
  O     -425.486    1183.109       8.811
  C     -427.520    1181.826       9.158
  O     -428.094    1182.672       8.130
  C     -427.196    1180.531       8.470
  O     -427.156    1179.451       9.434
  C     -428.356    1180.369       7.517
  O     -429.506    1179.846       8.222
  C     -428.625    1181.818       7.084
  N     -429.099    1181.739       1.967
  C     -429.786    1181.091       2.947
  N     -429.581    1181.120       4.261
  C     -428.528    1181.934       4.583
  C     -427.727    1182.637       3.691
  C     -428.043    1182.506       2.326
  N     -427.343    1183.176       1.339
  N     -426.752    1183.323       4.372
  C     -426.982    1183.093       5.636
  N     -428.020    1182.232       5.822
  O     -423.474    1181.494       9.294
  O     -423.355    1183.401       7.531
  H     -429.787    1180.519       8.864
  H     -423.480    1184.367       7.463
  H     -430.621    1180.495       2.604
  H     -426.447    1183.540       6.470
  H     -429.699    1182.035       7.008
  H     -428.148    1179.660       6.700
  H     -426.249    1180.563       7.908
  H     -428.285    1181.679       9.921
  H     -426.683    1183.297      10.495
  H     -427.527    1182.890       0.395
  H     -426.504    1183.643       1.600
  H     -425.730    1181.813      10.351
  P     -426.363    1178.091       9.139
  C     -428.108    1177.128       7.531
  O     -426.786    1177.666       7.661
  O     -426.520    1177.049      10.194
  O     -424.842    1178.564       8.953
  H     -424.231    1177.779       9.045
  H     -428.292    1176.876       6.507
  H     -428.823    1177.856       7.853
  H     -428.197    1176.250       8.136

 6  7  8  9  10  11  12  13  14  15  25  28  32  33  34  35 0
 6-311+G(2d,p)
 ****
 36  39  40 0
 6-311+G(2d,p)
 ****
 1  2  3  4  5  16  17  18  19  20  21  22  23  24 0
 3-21G
 ****
 26  27  29  30  31  37  38  41  42  43  44  45  46  47 0
 3-21G
 ****
 48 0
 3-21G
 ****


