%nproc=1
%NoSave
%Mem=1900MB
#P OB98/GEN NMR

erre ene a

0 1
  C     -244.719     606.645     166.295
  O     -245.867     606.695     167.157
  P     -247.317     606.688     166.476
  C     -247.707     609.152     167.207
  O     -247.745     608.194     166.156
  C     -248.986     609.993     167.226
  O     -250.124     609.228     167.679
  C     -248.917     611.200     168.154
  O     -248.255     612.292     167.530
  C     -250.394     611.514     168.335
  O     -250.885     612.241     167.190
  C     -251.020     610.116     168.383
  N     -253.041     611.106     172.993
  C     -252.973     611.839     171.855
  N     -252.405     611.519     170.675
  C     -251.869     610.285     170.728
  C     -251.864     609.420     171.812
  C     -252.478     609.875     172.989
  N     -252.542     609.123     174.138
  N     -251.216     608.241     171.497
  C     -250.852     608.389     170.235
  N     -251.223     609.610     169.729
  O     -248.285     606.272     167.681
  O     -247.440     605.731     165.327
  H     -250.847     611.632     166.430
  H     -249.023     605.728     167.344
  H     -253.446     612.823     171.903
  H     -250.331     607.644     169.648
  H     -251.998     610.077     167.873
  H     -250.587     612.139     169.214
  H     -248.464     610.930     169.117
  H     -249.185     610.322     166.199
  H     -246.832     609.801     167.092
  H     -253.030     609.502     174.942
  H     -252.149     608.189     174.144
  H     -247.567     608.629     168.161
  P     -246.795     612.666     168.076
  C     -247.696     614.676     169.457
  O     -247.025     613.431     169.465
  O     -246.316     613.821     167.070
  O     -245.835     611.522     168.105
  H     -245.345     613.803     166.970
  H     -248.041     614.897     170.472
  H     -248.567     614.646     168.793
  H     -247.009     615.458     169.125
  H     -243.828     606.656     166.887
  H     -244.725     607.494     165.643
  H     -244.749     605.748     165.713

 3  4  5  6  7  8  9  10  11  12  22  25  29  30  31  32 0
 6-311+G(2d,p)
 ****
 33  36  37 0
 6-311+G(2d,p)
 ****
 1  2  13  14  15  16  17  18  19  20  21  23  24  26 0
 3-21G
 ****
 27  28  34  35  38  39  40  41  42  43  44  45  46  47  48 0
 3-21G
 ****


