%nproc=1
%NoSave
%Mem=1900MB
#P OB98/GEN NMR

erre ene a

0 1
  C     -510.222    -104.007    -106.907
  O     -509.652    -104.392    -108.143
  H     -510.050    -102.935    -106.760
  H     -509.751    -104.554    -106.089
  H     -511.301    -104.194    -106.912
  P     -509.792    -105.940    -108.551
  C     -510.165    -105.423    -111.070
  O     -509.330    -106.037    -110.091
  C     -509.590    -105.646    -112.471
  O     -508.437    -104.770    -112.651
  C     -509.119    -107.081    -112.733
  O     -509.425    -107.432    -114.082
  C     -507.610    -106.985    -112.578
  O     -506.931    -108.030    -113.267
  C     -507.360    -105.588    -113.140
  N     -502.391    -106.130    -113.737
  C     -503.443    -106.800    -114.331
  N     -503.130    -107.764    -115.231
  N     -504.702    -106.542    -114.074
  C     -504.869    -105.536    -113.184
  C     -503.911    -104.810    -112.515
  C     -502.526    -105.114    -112.795
  O     -501.554    -104.582    -112.281
  N     -504.491    -103.897    -111.661
  C     -505.791    -104.079    -111.817
  N     -506.070    -105.056    -112.731
  O     -511.375    -106.168    -108.626
  O     -509.127    -106.910    -107.635
  H     -505.971    -107.904    -113.136
  H     -511.606    -107.088    -108.399
  H     -501.442    -106.374    -113.964
  H     -506.565    -103.531    -111.290
  H     -507.381    -105.568    -114.238
  H     -507.338    -107.037    -111.514
  H     -502.182    -107.994    -115.503
  H     -509.561    -107.818    -112.056
  H     -503.888    -108.260    -115.688
  H     -510.339    -105.335    -113.206
  H     -510.222    -104.347    -110.861
  H     -511.167    -105.857    -111.009
  P     -510.782    -108.248    -114.352
  C     -511.484    -106.958    -116.497
  O     -511.110    -108.200    -115.928
  O     -511.898    -107.296    -113.716
  O     -510.805    -109.607    -113.733
  H     -512.245    -107.688    -112.896
  H     -511.668    -107.086    -117.543
  H     -510.694    -106.250    -116.358
  H     -512.372    -106.600    -116.020

 6  7  8  9  10  11  12  13  14  15  26  29  33  34 0
 6-311+G(2d,p)
 ****
 36  38  39  40  41 0
 6-311+G(2d,p)
 ****
 1  2  3  4  5  16  17  18  19  20  21  22  23  24  25 0
 3-21G
 ****
 27  28  30  31  32  35  37  42  43  44  45  46  47 0
 3-21G
 ****
 48  49 0
 3-21G
 ****


