%nproc=1
%NoSave
%Mem=1900MB
#P OB98/GEN NMR

erre ene a

0 1
  C      374.566    -483.453    1334.156
  O      374.777    -482.093    1333.853
  P      375.813    -481.231    1334.729
  C      376.067    -480.586    1337.203
  O      375.181    -481.029    1336.187
  C      375.369    -480.598    1338.570
  O      375.059    -481.953    1338.971
  C      376.208    -480.001    1339.693
  O      376.228    -478.588    1339.626
  C      375.504    -480.585    1340.927
  O      374.330    -479.795    1341.243
  C      375.074    -481.973    1340.416
  N      375.294    -486.428    1342.906
  C      374.296    -485.512    1342.739
  N      374.325    -484.355    1342.093
  C      375.549    -484.104    1341.612
  C      376.672    -484.898    1341.737
  C      376.520    -486.131    1342.398
  N      377.506    -487.073    1342.518
  N      377.768    -484.292    1341.145
  C      377.324    -483.154    1340.670
  N      375.956    -483.025    1340.878
  O      376.316    -479.987    1334.083
  O      377.022    -482.259    1334.997
  H      373.849    -479.663    1340.409
  H      377.851    -481.888    1334.610
  H      373.324    -485.809    1343.176
  H      377.903    -482.404    1340.160
  H      374.058    -482.236    1340.736
  H      376.129    -480.606    1341.818
  H      377.224    -480.404    1339.658
  H      374.417    -480.053    1338.464
  H      376.387    -479.568    1336.954
  H      377.249    -487.988    1342.893
  H      378.324    -487.017    1341.905
  H      376.961    -481.224    1337.214
  P      377.222    -477.763    1340.564
  C      377.344    -477.525    1343.142
  O      376.513    -477.596    1341.994
  O      377.771    -476.500    1339.973
  O      378.396    -478.812    1340.887
  H      379.242    -478.345    1341.006
  H      377.688    -478.530    1343.385
  H      376.789    -477.125    1343.958
  H      378.216    -476.880    1342.910
  H      373.850    -483.863    1333.475
  H      374.198    -483.543    1335.157
  H      375.490    -483.986    1334.066

 3  4  5  6  7  8  9  10  11  12  22  25  29  30  31  32 0
 6-311+G(2d,p)
 ****
 33  36  37 0
 6-311+G(2d,p)
 ****
 1  2  13  14  15  16  17  18  19  20  21  23  24  26 0
 3-21G
 ****
 27  28  34  35  38  39  40  41  42  43  44  45  46  47  48 0
 3-21G
 ****


