%nproc=1
%NoSave
%Mem=1900MB
#P OB98/GEN NMR

erre ene a

0 1
  C      -78.395      99.320      15.962
  O      -77.782      98.647      17.038
  H      -79.294      99.821      16.334
  H      -78.694      98.611      15.188
  H      -77.723     100.073      15.543
  P      -76.454      97.784      16.770
  C      -77.543      95.614      17.603
  O      -76.517      96.572      17.830
  C      -77.922      94.898      18.900
  O      -78.585      95.832      19.794
  C      -78.869      93.705      18.693
  O      -78.396      92.579      19.434
  C      -80.184      94.188      19.284
  O      -81.031      93.122      19.705
  C      -79.679      95.115      20.394
  N      -80.724      96.004      20.883
  C      -80.672      96.326      22.243
  O      -79.775      95.871      22.954
  N      -81.663      97.108      22.776
  C      -82.648      97.495      22.028
  N      -83.613      98.244      22.624
  C      -82.758      97.155      20.594
  C      -81.769      96.417      20.091
  O      -75.187      98.570      16.785
  O      -76.719      97.045      15.376
  H      -81.884      93.503      20.007
  H      -75.853      96.794      14.978
  H      -83.602      97.499      20.015
  H      -81.763      96.117      19.049
  H      -79.285      94.538      21.240
  H      -80.727      94.772      18.529
  H      -78.980      93.422      17.647
  H      -77.000      94.589      19.408
  H      -83.502      98.448      23.611
  H      -77.190      94.893      16.857
  H      -84.437      98.581      22.151
  H      -78.422      96.134      17.213
  P      -78.300      91.192      18.632
  C      -79.564      89.787      20.409
  O      -78.352      89.997      19.700
  O      -76.790      91.175      18.103
  O      -79.277      91.087      17.508
  H      -76.777      91.295      17.135
  H      -79.446      88.962      21.080
  H      -80.350      89.574      19.716
  H      -79.809      90.667      20.966

 6  7  8  9  10  11  12  13  14  15  16  26  30  31  32  33  35 0
 6-311+G(2d,p)
 ****
 37  38 0
 6-311+G(2d,p)
 ****
 1  2  3  4  5  17  18  19  20  21  22  23  24  25 0
 3-21G
 ****
 27  28  29  34  36  39  40  41  42  43  44  45  46 0
 3-21G
 ****


