%nproc=1
%NoSave
%Mem=1900MB
#P OB98/GEN NMR

erre ene a

0 1
  C      433.269     557.416     244.507
  O      433.259     556.179     243.785
  P      431.896     555.469     243.322
  C      432.635     555.169     240.872
  O      431.673     555.743     241.759
  C      432.294     555.458     239.405
  O      431.213     554.619     238.958
  C      431.859     556.894     239.129
  O      432.982     557.754     239.072
  C      431.107     556.724     237.813
  O      432.027     556.678     236.710
  C      430.431     555.365     238.002
  N      425.737     556.976     236.756
  C      426.906     556.976     236.075
  N      428.117     556.533     236.478
  C      428.044     556.023     237.717
  C      426.923     555.960     238.538
  C      425.726     556.471     238.010
  N      424.544     556.481     238.714
  N      427.243     555.396     239.754
  C      428.529     555.106     239.666
  N      429.053     555.468     238.455
  O      430.714     555.798     244.176
  O      432.218     553.898     243.382
  H      432.686     557.378     236.851
  H      431.394     553.404     243.558
  H      426.861     557.392     235.071
  H      429.113     554.636     240.443
  H      430.428     554.780     237.078
  H      430.407     557.547     237.618
  H      431.163     557.230     239.904
  H      433.177     555.201     238.805
  H      432.650     554.085     241.036
  H      423.736     556.896     238.278
  H      424.534     556.149     239.664
  H      433.619     555.579     241.115
  P      432.919     559.201     239.753
  C      435.412     559.349     240.334
  O      434.095     559.263     240.844
  O      431.577     559.629     240.242
  O      433.457     560.183     238.602
  H      433.045     561.063     238.712
  H      435.749     558.350     240.028
  H      436.070     559.715     241.131
  H      435.466     560.031     239.485
  H      434.280     557.702     244.710
  H      432.740     557.295     245.429
  H      432.794     558.175     243.921

 3  4  5  6  7  8  9  10  11  12  22  25  29  30  31  32 0
 6-311+G(2d,p)
 ****
 33  36  37 0
 6-311+G(2d,p)
 ****
 1  2  13  14  15  16  17  18  19  20  21  23  24  26 0
 3-21G
 ****
 27  28  34  35  38  39  40  41  42  43  44  45  46  47  48 0
 3-21G
 ****


