%nproc=1
%NoSave
%Mem=1900MB
#P OB98/GEN NMR

erre ene a

0 1
  C     -502.342    -128.720      40.555
  O     -503.458    -127.835      40.440
  P     -504.854    -128.347      41.055
  C     -505.583    -126.584      42.827
  O     -504.935    -127.821      42.568
  C     -504.598    -125.572      43.410
  O     -503.564    -125.249      42.470
  C     -505.230    -124.237      43.784
  O     -505.904    -124.298      45.031
  C     -503.998    -123.347      43.888
  O     -503.381    -123.509      45.176
  C     -503.091    -123.914      42.780
  N     -501.477    -119.662      40.538
  C     -501.250    -120.129      41.818
  N     -500.456    -119.365      42.603
  N     -501.748    -121.243      42.285
  C     -502.502    -121.913      41.378
  C     -502.797    -121.555      40.083
  C     -502.261    -120.307      39.589
  O     -502.460    -119.832      38.477
  N     -503.580    -122.502      39.472
  C     -503.730    -123.442      40.382
  N     -503.108    -123.129      41.564
  O     -504.611    -129.923      41.223
  O     -506.036    -128.054      40.196
  H     -503.149    -124.455      45.264
  H     -505.462    -130.399      41.177
  H     -501.071    -118.799      40.233
  H     -504.273    -124.366      40.233
  H     -502.049    -124.005      43.115
  H     -504.231    -122.278      43.772
  H     -499.980    -118.538      42.290
  H     -505.886    -123.871      42.981
  H     -500.249    -119.715      43.534
  H     -504.137    -126.023      44.304
  H     -506.410    -126.734      43.520
  H     -506.018    -126.210      41.890
  P     -507.500    -124.473      44.991
  C     -507.724    -126.294      46.830
  O     -507.776    -125.984      45.454
  O     -507.830    -124.476      43.429
  O     -508.255    -123.416      45.724
  H     -508.728    -124.134      43.271
  H     -508.223    -125.529      47.429
  H     -506.675    -126.383      47.144
  H     -508.224    -127.249      46.997
  H     -501.480    -128.267      40.111
  H     -502.562    -129.638      40.051
  H     -502.149    -128.918      41.589

 3  4  5  6  7  8  9  10  11  12  23  26  30  31  33  0
 6-311+G(2d,p)
 ****
 35  36  37  38 0
 6-311+G(2d,p)
 ****
 1  2  13  14  15  16  17  18  19  20  21  22  24  25  27  28  29 0
 3-21G
 ****
 32  34  39  40  41  42  43  44  45  46  47  48  49 0
 3-21G
 ****


