%nproc=1
%NoSave
%Mem=1900MB
#P OB98/GEN NMR

erre ene a

0 1
  C     -208.320    -214.429     609.265
  O     -207.638    -215.150     608.257
  P     -206.355    -214.530     607.518
  C     -205.986    -212.559     605.874
  O     -206.925    -213.308     606.641
  C     -206.670    -211.990     604.635
  O     -207.668    -211.035     605.028
  C     -205.743    -211.261     603.672
  O     -204.972    -212.173     602.907
  C     -206.740    -210.426     602.883
  O     -207.367    -211.226     601.869
  C     -207.771    -210.046     603.966
  N     -207.575    -208.698     604.482
  C     -207.570    -207.663     603.557
  O     -207.720    -207.877     602.354
  N     -207.408    -206.359     603.998
  C     -207.250    -206.131     605.260
  N     -207.167    -204.834     605.652
  C     -207.188    -207.195     606.283
  C     -207.355    -208.444     605.829
  O     -205.522    -215.499     606.761
  O     -205.543    -213.768     608.676
  H     -207.504    -212.110     602.241
  H     -204.897    -214.350     609.152
  H     -207.036    -206.949     607.330
  H     -207.359    -209.275     606.517
  H     -208.781    -210.119     603.579
  H     -206.288    -209.561     602.389
  H     -205.073    -210.594     604.234
  H     -207.183    -212.817     604.117
  H     -207.380    -204.125     604.954
  H     -205.180    -213.232     605.560
  H     -207.320    -204.550     606.618
  H     -205.573    -211.757     606.498
  P     -203.628    -211.623     602.210
  C     -203.111    -209.764     600.482
  O     -204.119    -210.447     601.220
  O     -203.198    -212.827     601.245
  O     -202.550    -211.240     603.172
  H     -202.467    -213.324     601.646
  H     -203.619    -209.197     599.686
  H     -202.425    -210.481     600.009
  H     -202.576    -209.075     601.131
  H     -209.140    -215.012     609.628
  H     -208.688    -213.510     608.859
  H     -207.648    -214.219     610.070

 3  4  5  6  7  8  9  10  11  12  13  23  27  28  29  30  32 0
 6-311+G(2d,p)
 ****
 34  35 0
 6-311+G(2d,p)
 ****
 1  2  14  15  16  17  18  19  20  21  22  24  25  26 0
 3-21G
 ****
 31  33  36  37  38  39  40  41  42  43  44  45  46 0
 3-21G
 ****


