%nproc=1
%NoSave
%Mem=1900MB
#P OB98/GEN NMR

erre ene a

0 1
  C     -177.323     -72.348      15.531
  O     -178.408     -71.435      15.401
  P     -178.495     -70.199      16.418
  C     -176.288     -68.866      15.826
  O     -177.029     -69.650      16.730
  C     -176.506     -67.377      16.147
  O     -175.979     -67.065      17.454
  C     -175.829     -66.440      15.152
  O     -176.641     -66.176      14.025
  C     -175.566     -65.216      16.007
  O     -176.776     -64.448      16.165
  C     -175.159     -65.865      17.351
  N     -173.743     -66.242      17.541
  C     -172.759     -65.259      17.568
  O     -172.980     -64.056      17.436
  N     -171.475     -65.693      17.767
  C     -171.096     -66.959      18.109
  O     -169.938     -67.279      18.330
  C     -172.187     -67.932      18.213
  C     -173.433     -67.544      17.922
  O     -178.955     -70.870      17.792
  O     -179.428     -69.109      15.987
  H     -177.032     -64.129      15.282
  H     -179.838     -70.548      18.051
  H     -170.744     -65.000      17.718
  H     -171.938     -68.937      18.524
  H     -174.249     -68.259      17.996
  H     -175.426     -65.211      18.190
  H     -174.844     -64.548      15.537
  H     -174.860     -66.849      14.846
  H     -177.589     -67.181      16.159
  H     -176.587     -69.070      14.793
  H     -175.224     -69.118      15.900
  P     -176.519     -67.094      12.718
  C     -178.765     -68.214      13.245
  O     -177.382     -68.411      13.029
  O     -175.134     -67.332      12.213
  O     -177.427     -66.334      11.636
  H     -176.875     -65.755      11.062
  H     -179.258     -69.188      13.288
  H     -179.202     -67.631      12.427
  H     -178.923     -67.698      14.196
  H     -177.407     -73.110      14.785
  H     -177.348     -72.796      16.503
  H     -176.399     -71.824      15.403

 3  4  5  6  7  8  9  10  11  12  13  23  28  29  30  31  32 0
 6-311+G(2d,p)
 ****
 33  34 0
 6-311+G(2d,p)
 ****
 1  2  14  15  16  17  18  19  20  21  22  24  25  26  27 0
 3-21G
 ****
 35  36  37  38  39  40  41  42  43  44  45 0
 3-21G
 ****


