%nproc=1
%NoSave
%Mem=1900MB
#P OB98/GEN NMR

erre ene a

0 1
  C      582.857     261.750     633.959
  O      581.722     262.331     633.354
  P      581.731     262.492     631.758
  C      582.181     265.022     631.287
  O      582.723     263.703     631.412
  C      582.688     265.677     630.012
  O      584.130     265.660     629.982
  C      582.244     265.001     628.727
  O      580.889     265.281     628.432
  C      583.257     265.567     627.727
  O      582.865     266.903     627.359
  C      584.553     265.621     628.592
  N      588.839     263.908     626.352
  C      588.231     265.113     626.354
  N      587.086     265.497     626.951
  C      586.556     264.449     627.618
  C      587.025     263.166     627.697
  C      588.227     262.893     627.041
  N      588.833     261.653     627.042
  N      586.177     262.363     628.447
  C      585.220     263.181     628.839
  N      585.397     264.465     628.371
  O      580.281     263.092     631.428
  O      581.992     261.228     631.004
  H      582.613     267.372     628.180
  H      579.957     262.766     630.574
  H      588.761     265.901     625.784
  H      584.368     262.894     629.449
  H      585.151     266.505     628.402
  H      583.351     264.979     626.826
  H      582.378     263.908     628.806
  H      582.372     266.729     630.026
  H      582.490     265.627     632.161
  H      589.610     261.510     626.412
  H      588.311     260.864     627.413
  H      581.079     264.948     631.290
  P      580.077     264.248     627.519
  C      580.608     265.515     625.360
  O      580.809     264.321     626.089
  O      578.708     265.035     627.257
  O      579.953     262.869     628.117
  H      578.857     265.951     626.965
  H      581.206     265.446     624.442
  H      580.959     266.377     625.943
  H      579.562     265.628     625.096
  H      582.713     261.706     635.018
  H      583.720     262.343     633.740
  H      582.998     260.761     633.577

 3  4  5  6  7  8  9  10  11  12  22  25  29  30  31  32 0
 6-311+G(2d,p)
 ****
 33  36  37 0
 6-311+G(2d,p)
 ****
 1  2  13  14  15  16  17  18  19  20  21  23  24  26 0
 3-21G
 ****
 27  28  34  35  38  39  40  41  42  43  44  45  46  47  48 0
 3-21G
 ****


