%nproc=1
%NoSave
%Mem=1900MB
#P OB98/GEN NMR

erre ene a

0 1
  C     -560.380     222.067     -53.093
  O     -560.581     222.682     -51.840
  P     -562.029     222.723     -51.149
  C     -564.167     224.126     -51.492
  O     -562.955     223.660     -52.081
  C     -565.049     224.799     -52.553
  O     -565.182     223.891     -53.699
  C     -566.469     225.125     -52.039
  O     -566.876     226.489     -52.241
  C     -567.330     224.082     -52.739
  O     -568.695     224.426     -52.827
  C     -566.581     223.898     -54.067
  N     -566.974     222.683     -54.777
  C     -567.983     222.798     -55.723
  O     -568.557     223.856     -56.004
  N     -568.394     221.635     -56.319
  C     -567.974     220.377     -55.985
  O     -568.457     219.369     -56.484
  C     -566.934     220.311     -54.945
  C     -566.467     221.444     -54.410
  O     -562.043     223.090     -49.703
  O     -562.613     221.261     -51.461
  H     -569.059     224.464     -51.922
  H     -562.690     221.042     -52.409
  H     -569.130     221.704     -57.005
  H     -566.591     219.329     -54.654
  H     -565.704     221.431     -53.645
  H     -566.731     224.752     -54.734
  H     -567.264     223.153     -52.159
  H     -566.537     224.982     -50.952
  H     -564.530     225.710     -52.884
  H     -563.930     224.855     -50.716
  H     -564.697     223.289     -51.015
  P     -567.775     227.333     -51.217
  C     -569.907     226.836     -49.807
  O     -569.118     226.499     -50.930
  O     -567.981     228.762     -51.593
  O     -566.974     227.228     -49.831
  H     -567.146     228.022     -49.298
  H     -570.430     225.936     -49.463
  H     -570.651     227.583     -50.102
  H     -569.297     227.224     -48.983
  H     -559.350     222.151     -53.370
  H     -560.988     222.550     -53.829
  H     -560.650     221.033     -53.030

 3  4  5  6  7  8  9  10  11  12  13  23  28  29  30  31  32 0
 6-311+G(2d,p)
 ****
 33  34 0
 6-311+G(2d,p)
 ****
 1  2  14  15  16  17  18  19  20  21  22  24  25  26  27 0
 3-21G
 ****
 35  36  37  38  39  40  41  42  43  44  45 0
 3-21G
 ****


