%nproc=1
%NoSave
%Mem=1900MB
#P OB98/GEN NMR

erre ene a

0 1
  C     -112.930     -33.742     -59.276
  O     -113.677     -32.627     -58.835
  H     -112.127     -33.929     -58.559
  H     -112.485     -33.546     -60.256
  H     -113.566     -34.630     -59.325
  P     -114.850     -32.074     -59.782
  C     -112.985     -30.802     -61.055
  O     -114.100     -31.675     -61.148
  C     -112.216     -30.786     -62.374
  O     -111.646     -32.080     -62.657
  C     -113.057     -30.455     -63.602
  O     -113.406     -29.084     -63.695
  C     -112.101     -30.889     -64.701
  O     -111.066     -29.902     -64.856
  C     -111.531     -32.199     -64.104
  N     -112.232     -33.393     -64.576
  C     -111.746     -33.980     -65.752
  O     -110.779     -33.496     -66.340
  N     -112.394     -35.082     -66.257
  C     -113.443     -35.545     -65.653
  N     -114.075     -36.610     -66.222
  C     -113.978     -34.969     -64.404
  C     -113.335     -33.904     -63.929
  O     -115.725     -31.011     -59.199
  O     -115.654     -33.384     -60.227
  H     -110.383     -30.292     -65.431
  H     -116.400     -33.094     -60.806
  H     -114.860     -35.390     -63.946
  H     -113.677     -33.415     -63.024
  H     -110.465     -32.300     -64.335
  H     -112.586     -31.007     -65.674
  H     -113.950     -31.088     -63.646
  H     -111.378     -30.085     -62.258
  H     -113.706     -36.951     -67.099
  H     -112.349     -31.148     -60.234
  H     -115.032     -36.847     -65.978
  H     -113.321     -29.784     -60.839
  P     -114.917     -28.719     -64.100
  C     -114.176     -27.871     -66.449
  O     -114.988     -28.762     -65.702
  O     -115.009     -27.159     -63.758
  O     -115.981     -29.520     -63.419
  H     -115.367     -27.016     -62.861
  H     -114.342     -28.028     -67.494
  H     -113.146     -28.050     -66.221
  H     -114.427     -26.862     -66.196

 6  7  8  9  10  11  12  13  14  15  16  26  30  31  32  33  35 0
 6-311+G(2d,p)
 ****
 37  38 0
 6-311+G(2d,p)
 ****
 1  2  3  4  5  17  18  19  20  21  22  23  24  25 0
 3-21G
 ****
 27  28  29  34  36  39  40  41  42  43  44  45  46 0
 3-21G
 ****


