%nproc=1
%NoSave
%Mem=1900MB
#P OB98/GEN NMR

erre ene a

0 1
  C       98.683    -317.186    -195.061
  O       97.489    -317.148    -195.856
  P       96.146    -317.749    -195.223
  C       94.583    -317.079    -193.253
  O       95.534    -316.656    -194.220
  C       94.222    -315.916    -192.321
  O       95.376    -315.439    -191.592
  C       93.656    -314.704    -193.045
  O       92.266    -314.847    -193.310
  C       93.873    -313.613    -192.004
  O       92.831    -313.674    -191.009
  C       95.224    -314.009    -191.396
  N       98.508    -310.199    -190.854
  C       97.500    -310.628    -190.015
  N       97.344    -309.946    -188.857
  N       96.710    -311.637    -190.286
  C       96.991    -312.232    -191.465
  C       97.965    -311.901    -192.386
  C       98.823    -310.776    -192.079
  O       99.727    -310.340    -192.790
  N       97.939    -312.737    -193.470
  C       96.966    -313.588    -193.205
  N       96.347    -313.316    -192.010
  O       96.697    -318.877    -194.224
  O       95.195    -318.316    -196.227
  H       93.140    -313.144    -190.247
  H       96.029    -319.579    -194.119
  H       99.085    -309.411    -190.597
  H       96.675    -314.415    -193.842
  H       95.272    -313.814    -190.318
  H       93.837    -312.610    -192.441
  H       97.946    -309.195    -188.561
  H       94.230    -314.479    -193.954
  H       96.627    -310.269    -188.218
  H       93.480    -316.281    -191.597
  H       94.978    -317.912    -192.668
  H       93.700    -317.468    -193.771
  P       91.818    -315.149    -194.823
  C       92.889    -316.538    -196.737
  O       92.779    -316.320    -195.345
  O       92.327    -313.850    -195.607
  O       90.355    -315.367    -195.007
  H       91.733    -313.658    -196.361
  H       93.700    -317.255    -196.915
  H       93.120    -315.608    -197.263
  H       91.957    -316.959    -197.129
  H       99.492    -316.753    -195.611
  H       98.919    -318.201    -194.820
  H       98.528    -316.632    -194.159

 3  4  5  6  7  8  9  10  11  12  23  26  30  31 0
 6-311+G(2d,p)
 ****
 33  35  36  37  38 0
 6-311+G(2d,p)
 ****
 1  2  13  14  15  16  17  18  19  20  21  22  24  25 0
 3-21G
 ****
 27  28  29  32  34  39  40  41  42  43  44  45  46  47  48  49 0
 3-21G
 ****


