%nproc=1
%NoSave
%Mem=1900MB
#P OB98/GEN NMR

erre ene a

0 1
  C      177.450     195.112      75.882
  O      178.454     194.142      76.106
  H      177.884     196.106      76.016
  H      176.641     194.984      76.605
  H      177.056     195.031      74.864
  P      178.104     192.622      75.739
  C      179.923     192.385      73.896
  O      179.456     191.967      75.170
  C      181.373     191.947      73.699
  O      182.244     192.926      74.336
  C      181.697     190.577      74.313
  O      182.641     189.913      73.465
  C      182.378     190.940      75.622
  O      183.225     189.921      76.135
  C      183.135     192.206      75.212
  N      183.521     193.027      76.361
  C      184.650     192.637      77.075
  O      185.391     191.706      76.764
  N      184.916     193.372      78.203
  C      184.174     194.412      78.682
  O      184.456     195.014      79.711
  C      182.988     194.769      77.890
  C      182.720     194.069      76.786
  O      177.185     192.768      74.438
  O      177.442     191.836      76.822
  H      176.246     192.848      74.690
  H      182.789     189.061      75.960
  H      185.732     193.104      78.733
  H      182.370     195.580      78.248
  H      181.843     194.294      76.188
  H      184.027     191.947      74.630
  H      181.623     191.167      76.383
  H      180.823     189.936      74.467
  H      181.604     191.961      72.628
  H      179.869     193.477      73.832
  H      179.283     191.954      73.119
  P      182.868     188.342      73.701
  C      182.157     187.506      71.321
  O      183.203     187.734      72.257
  O      181.376     187.856      74.001
  O      183.860     188.052      74.776
  H      180.708     188.342      73.489
  H      182.567     187.100      70.420
  H      181.665     188.431      71.104
  H      181.452     186.815      71.735

 6  7  8  9  10  11  12  13  14  15  16  27  31  32  33  34  35 0
 6-311+G(2d,p)
 ****
 36  37 0
 6-311+G(2d,p)
 ****
 1  2  3  4  5  17  18  19  20  21  22  23  24  25 0
 3-21G
 ****
 26  28  29  30  38  39  40  41  42  43  44  45 0
 3-21G
 ****


