%nproc=1
%NoSave
%Mem=1900MB
#P OB98/GEN NMR

erre ene a

0 1
  C     -529.263     -76.783    -246.439
  O     -529.294     -75.396    -246.803
  P     -528.359     -74.394    -245.966
  C     -527.010     -73.488    -248.022
  O     -527.008     -74.248    -246.820
  C     -525.787     -73.850    -248.873
  O     -525.678     -75.290    -249.014
  C     -525.831     -73.298    -250.288
  O     -525.566     -71.909    -250.319
  C     -524.775     -74.168    -250.965
  O     -523.459     -73.668    -250.675
  C     -524.994     -75.530    -250.267
  N     -525.703     -76.490    -251.093
  C     -524.933     -77.509    -251.653
  O     -523.718     -77.589    -251.490
  N     -525.607     -78.413    -252.423
  C     -526.940     -78.388    -252.711
  O     -527.496     -79.233    -253.403
  C     -527.698     -77.264    -252.134
  C     -527.052     -76.383    -251.359
  O     -527.948     -75.319    -244.726
  O     -529.047     -73.116    -245.606
  H     -527.838     -76.250    -244.968
  H     -523.393     -72.803    -251.135
  H     -525.066     -79.161    -252.829
  H     -528.753     -77.193    -252.358
  H     -527.594     -75.543    -250.931
  H     -524.017     -75.972    -250.001
  H     -524.890     -74.190    -252.049
  H     -526.814     -73.497    -250.737
  H     -524.895     -73.487    -248.345
  H     -526.980     -72.423    -247.790
  H     -527.941     -73.682    -248.566
  P     -526.811     -70.925    -250.081
  C     -525.751     -70.051    -247.856
  O     -526.864     -70.613    -248.517
  O     -528.043     -71.923    -250.318
  O     -526.810     -69.722    -250.981
  H     -527.925     -72.784    -249.889
  H     -526.080     -69.602    -246.919
  H     -525.278     -69.275    -248.473
  H     -525.015     -70.833    -247.637
  H     -529.927     -77.333    -247.072
  H     -529.570     -76.891    -245.420
  H     -528.268     -77.160    -246.553

 3  4  5  6  7  8  9  10  11  12  13  24  28  29  30  31  32 0
 6-311+G(2d,p)
 ****
 33  34 0
 6-311+G(2d,p)
 ****
 1  2  14  15  16  17  18  19  20  21  22  23  25  26  27 0
 3-21G
 ****
 35  36  37  38  39  40  41  42  43  44  45 0
 3-21G
 ****


