%nproc=1
%NoSave
%Mem=1900MB
#P OB98/GEN NMR

erre ene a

0 1
  C     -237.598     517.671     135.581
  O     -236.673     518.064     134.588
  H     -237.452     516.609     135.796
  H     -238.619     517.817     135.219
  H     -237.442     518.244     136.501
  P     -236.599     519.625     134.224
  C     -236.141     521.676     135.752
  O     -235.798     520.337     135.422
  C     -234.916     522.426     136.271
  O     -234.404     521.736     137.441
  C     -233.780     522.529     135.252
  O     -233.166     523.815     135.377
  C     -232.799     521.458     135.696
  O     -231.462     521.727     135.276
  C     -233.008     521.457     137.216
  N     -232.604     520.185     137.811
  C     -231.229     519.967     137.953
  O     -230.426     520.821     137.576
  N     -230.797     518.771     138.462
  C     -231.660     517.835     138.728
  N     -231.167     516.660     139.201
  C     -233.114     517.998     138.528
  C     -233.514     519.189     138.082
  O     -238.102     520.130     134.438
  O     -236.082     519.940     132.861
  H     -231.495     522.175     134.401
  H     -238.323     520.856     133.825
  H     -233.788     517.180     138.741
  H     -234.559     519.397     137.898
  H     -232.429     522.265     137.685
  H     -233.095     520.491     135.272
  H     -234.111     522.382     134.218
  H     -235.234     523.422     136.603
  H     -230.162     516.583     139.307
  H     -236.909     521.664     136.533
  H     -231.737     515.851     139.396
  H     -236.549     522.176     134.865
  P     -233.371     524.832     134.152
  C     -235.279     526.347     133.248
  O     -234.896     525.323     134.157
  O     -233.277     523.885     132.867
  O     -232.354     525.928     134.108
  H     -232.440     524.049     132.392
  H     -236.320     526.563     133.372
  H     -235.100     526.019     132.245
  H     -234.706     527.229     133.443

 6  7  8  9  10  11  12  13  14  15  16  26  30  31  32  33  35 0
 6-311+G(2d,p)
 ****
 37  38 0
 6-311+G(2d,p)
 ****
 1  2  3  4  5  17  18  19  20  21  22  23  24  25 0
 3-21G
 ****
 27  28  29  34  36  39  40  41  42  43  44  45  46 0
 3-21G
 ****


