%nproc=1
%NoSave
%Mem=1900MB
#P OB98/GEN NMR

erre ene a

0 1
  C      340.243      88.804     300.142
  O      340.481      90.142     299.753
  H      340.666      88.140     299.382
  H      339.167      88.611     300.212
  H      340.724      88.591     301.099
  P      339.917      91.320     300.683
  C      338.015      91.714     298.978
  O      338.357      91.453     300.336
  C      336.716      92.510     298.901
  O      336.552      93.079     297.586
  C      335.456      91.684     299.170
  O      335.251      91.525     300.564
  C      334.402      92.566     298.522
  O      334.109      93.684     299.384
  C      335.132      93.055     297.257
  N      332.592      92.485     292.902
  C      332.414      93.404     293.917
  N      331.392      94.278     293.768
  N      333.156      93.458     294.991
  C      334.097      92.480     295.041
  C      334.356      91.504     294.105
  C      333.568      91.501     292.891
  O      333.710      90.717     291.954
  N      335.322      90.632     294.548
  C      335.677      91.111     295.721
  N      334.957      92.230     296.073
  O      340.663      92.618     300.629
  O      339.910      90.691     302.152
  H      333.781      93.320     300.226
  H      340.743      90.884     302.624
  H      331.983      92.489     292.101
  H      336.452      90.699     296.356
  H      334.841      94.074     296.984
  H      333.462      92.042     298.343
  H      330.695      94.192     293.039
  H      335.489      90.724     298.648
  H      331.209      94.919     294.530
  H      336.795      93.349     299.610
  H      337.903      90.745     298.475
  H      338.820      92.271     298.485
  P      335.080      90.071     301.230
  C      332.540      90.530     301.062
  O      333.594      89.605     300.851
  O      335.408      90.005     302.681
  O      335.971      89.113     300.312
  H      336.925      89.099     300.581
  H      331.612      90.087     300.767
  H      332.716      91.410     300.479
  H      332.497      90.791     302.099

 6  7  8  9  10  11  12  13  14  15  26  29  33  34 0
 6-311+G(2d,p)
 ****
 36  38  39  40  41 0
 6-311+G(2d,p)
 ****
 1  2  3  4  5  16  17  18  19  20  21  22  23  24  25 0
 3-21G
 ****
 27  28  30  31  32  35  37  42  43  44  45  46  47 0
 3-21G
 ****
 48  49 0
 3-21G
 ****


