%nproc=1
%NoSave
%Mem=1900MB
#P OB98/GEN NMR

erre ene a

0 1
  C      -42.230      99.997    -550.834
  O      -43.323     100.660    -550.220
  P      -44.840     100.207    -550.515
  C      -44.775      99.144    -548.157
  O      -45.090      98.965    -549.530
  C      -46.044      99.471    -547.372
  O      -46.439     100.829    -547.643
  C      -47.247      98.605    -547.723
  O      -47.141      97.318    -547.138
  C      -48.387      99.476    -547.201
  O      -48.515      99.324    -545.778
  C      -47.887     100.897    -547.530
  N      -48.480     101.437    -548.751
  C      -49.690     102.121    -548.595
  O      -50.212     102.255    -547.488
  N      -50.276     102.668    -549.710
  C      -49.719     102.531    -550.873
  N      -50.308     103.155    -551.932
  C      -48.474     101.772    -551.088
  C      -47.912     101.262    -549.987
  O      -45.148      99.941    -551.946
  O      -45.731     101.353    -549.854
  H      -49.151     100.007    -545.477
  H      -45.923     102.106    -550.468
  H      -48.056     101.669    -552.081
  H      -46.987     100.706    -550.054
  H      -48.095     101.575    -546.695
  H      -49.359      99.237    -547.653
  H      -47.336      98.498    -548.812
  H      -45.816      99.387    -546.294
  H      -51.055     103.806    -551.707
  H      -44.070      99.973    -548.066
  H      -49.803     103.337    -552.785
  H      -44.297      98.231    -547.769
  P      -47.852      96.094    -547.897
  C      -45.922      95.775    -549.604
  O      -47.281      96.123    -549.401
  O      -49.368      96.584    -548.038
  O      -47.741      94.782    -547.194
  H      -49.929      96.157    -547.363
  H      -45.759      95.614    -550.670
  H      -45.673      94.859    -549.065
  H      -45.274      96.592    -549.272
  H      -41.314     100.445    -550.510
  H      -42.313     100.083    -551.897
  H      -42.239      98.963    -550.558

 3  4  5  6  7  8  9  10  11  12  13  23  27  28  29  30  32 0
 6-311+G(2d,p)
 ****
 34  35 0
 6-311+G(2d,p)
 ****
 1  2  14  15  16  17  18  19  20  21  22  24  25  26 0
 3-21G
 ****
 31  33  36  37  38  39  40  41  42  43  44  45  46 0
 3-21G
 ****


