%nproc=1
%NoSave
%Mem=1900MB
#P OB98/GEN NMR

erre ene a

0 1
  C      518.829    -359.038    -519.320
  O      519.282    -360.139    -520.087
  H      519.632    -358.300    -519.258
  H      518.553    -359.350    -518.314
  H      517.974    -358.569    -519.819
  P      518.376    -361.465    -520.117
  C      519.527    -363.264    -518.655
  O      518.603    -362.172    -518.685
  C      520.895    -362.808    -518.148
  O      520.750    -362.065    -516.919
  C      521.834    -363.962    -517.799
  O      522.284    -364.687    -518.915
  C      522.841    -363.295    -516.867
  O      523.914    -362.656    -517.565
  C      521.972    -362.215    -516.169
  N      521.715    -362.547    -514.771
  C      522.833    -362.638    -513.960
  O      523.986    -362.463    -514.353
  N      522.593    -362.960    -512.649
  C      521.381    -363.253    -512.107
  O      521.239    -363.580    -510.944
  C      520.231    -363.176    -513.027
  C      520.438    -362.830    -514.297
  O      518.591    -362.378    -521.291
  O      516.880    -360.900    -520.002
  H      524.409    -362.129    -516.900
  H      516.222    -361.591    -520.273
  H      523.396    -363.017    -512.038
  H      519.250    -363.403    -512.631
  H      519.617    -362.767    -515.005
  H      522.478    -361.241    -516.198
  H      523.279    -364.010    -516.173
  H      521.272    -364.669    -517.180
  H      521.348    -362.143    -518.898
  H      519.632    -363.634    -519.686
  H      519.125    -364.064    -518.032
  P      522.784    -366.212    -518.830
  C      525.323    -366.797    -518.847
  O      524.223    -366.231    -518.119
  O      522.559    -367.055    -520.046
  O      521.826    -366.787    -517.661
  H      521.625    -367.713    -517.884
  H      526.211    -366.741    -518.252
  H      525.468    -366.251    -519.756
  H      525.111    -367.821    -519.075

 6  7  8  9  10  11  12  13  14  15  16  26  31  32  33  34  35 0
 6-311+G(2d,p)
 ****
 36  37 0
 6-311+G(2d,p)
 ****
 1  2  3  4  5  17  18  19  20  21  22  23  24  25 0
 3-21G
 ****
 27  28  29  30  38  39  40  41  42  43  44  45 0
 3-21G
 ****


