%nproc=1
%NoSave
%Mem=1900MB
#P OB98/GEN NMR

erre ene a

0 1
  C     -373.058    -474.975    -895.016
  O     -371.678    -474.704    -894.886
  H     -373.212    -475.886    -895.606
  H     -373.484    -475.121    -894.026
  H     -373.557    -474.126    -895.496
  P     -370.844    -474.566    -896.236
  C     -370.121    -472.108    -895.786
  O     -369.696    -473.460    -895.966
  C     -369.095    -471.351    -894.946
  O     -369.038    -471.904    -893.606
  C     -367.663    -471.410    -895.466
  O     -367.449    -470.512    -896.536
  C     -366.895    -470.984    -894.226
  O     -366.931    -469.560    -894.086
  C     -367.711    -471.641    -893.076
  N     -364.513    -473.767    -889.696
  C     -364.857    -472.477    -889.916
  N     -365.695    -471.995    -890.836
  C     -366.251    -472.993    -891.586
  C     -365.974    -474.339    -891.466
  C     -365.055    -474.733    -890.476
  N     -364.696    -476.046    -890.256
  N     -366.716    -475.062    -892.376
  C     -367.397    -474.151    -893.046
  N     -367.136    -472.884    -892.606
  O     -371.855    -473.806    -897.236
  O     -370.369    -475.849    -896.846
  H     -366.350    -469.194    -894.776
  H     -371.736    -474.153    -898.136
  H     -364.405    -471.745    -889.256
  H     -368.111    -474.372    -893.846
  H     -367.836    -470.954    -892.226
  H     -365.848    -471.288    -894.236
  H     -367.392    -472.438    -895.746
  H     -369.444    -470.307    -894.876
  H     -371.089    -472.097    -895.276
  H     -364.208    -476.283    -889.416
  H     -365.125    -476.757    -890.846
  H     -370.237    -471.634    -896.756
  P     -366.586    -471.021    -897.796
  C     -368.693    -471.825    -899.096
  O     -367.562    -470.956    -899.066
  O     -366.461    -472.597    -897.516
  O     -365.255    -470.377    -897.936
  H     -365.655    -472.966    -897.936
  H     -369.242    -471.664    -900.000
  H     -369.322    -471.620    -898.255
  H     -368.363    -472.842    -899.055

 6  7  8  9  10  11  12  13  14  15  25  28  32  33  34  35 0
 6-311+G(2d,p)
 ****
 36  39  40 0
 6-311+G(2d,p)
 ****
 1  2  3  4  5  16  17  18  19  20  21  22  23  24 0
 3-21G
 ****
 26  27  29  30  31  37  38  41  42  43  44  45  46  47  48 0
 3-21G
 ****


