%nproc=1
%NoSave
%Mem=1900MB
#P OB98/GEN NMR

erre ene a

0 1
  C      -90.460       3.418     117.934
  O      -89.443       4.399     117.731
  P      -88.602       4.921     118.994
  C      -87.438       2.826     119.925
  O      -87.288       4.010     119.155
  C      -86.163       1.974     119.943
  O      -86.083       1.135     118.757
  C      -84.860       2.784     120.014
  O      -83.941       2.032     120.815
  C      -84.415       2.809     118.565
  O      -83.041       3.138     118.424
  C      -84.811       1.395     118.131
  N      -84.884       1.253     116.686
  C      -83.732       0.819     116.027
  O      -82.683       0.672     116.654
  N      -83.795       0.595     114.673
  C      -84.867       0.922     114.019
  N      -84.898       0.665     112.682
  C      -86.038       1.551     114.656
  C      -85.988       1.663     115.980
  O      -89.386       5.118     120.249
  O      -88.001       6.314     118.470
  H      -82.856       3.958     118.928
  H      -87.960       6.941     119.218
  H      -86.874       1.883     114.058
  H      -86.798       2.106     116.541
  H      -84.098       0.654     118.520
  H      -84.999       3.556     118.013
  H      -84.991       3.777     120.454
  H      -86.220       1.300     120.810
  H      -84.077       0.254     112.254
  H      -88.261       2.233     119.513
  H      -85.715       0.843     112.114
  H      -87.742       3.099     120.942
  P      -83.297       2.725     122.112
  C      -84.878       4.640     122.879
  O      -84.494       3.288     123.016
  O      -82.686       4.076     121.490
  O      -82.222       1.951     122.807
  H      -81.953       4.383     122.061
  H      -85.860       4.772     123.344
  H      -84.953       4.929     121.827
  H      -84.158       5.286     123.389
  H      -90.920       3.182     116.997
  H      -91.198       3.803     118.607
  H      -90.025       2.534     118.350

 3  4  5  6  7  8  9  10  11  12  13  23  27  28  29  30  32 0
 6-311+G(2d,p)
 ****
 34  35 0
 6-311+G(2d,p)
 ****
 1  2  14  15  16  17  18  19  20  21  22  24  25  26 0
 3-21G
 ****
 31  33  36  37  38  39  40  41  42  43  44  45  46 0
 3-21G
 ****


