%nproc=1
%NoSave
%Mem=1900MB
#P OB98/GEN NMR

erre ene a

0 1
  C      432.078    -638.977     320.405
  O      431.769    -639.767     321.538
  P      430.225    -639.882     321.979
  C      428.316    -638.123     322.132
  O      429.714    -638.381     322.214
  C      428.064    -636.619     322.063
  O      428.758    -636.033     320.941
  C      426.598    -636.237     321.864
  O      425.865    -636.272     323.084
  C      426.733    -634.813     321.375
  O      426.965    -633.916     322.479
  C      427.985    -634.899     320.485
  N      426.192    -632.563     316.367
  C      426.556    -632.040     317.592
  N      426.353    -630.710     317.765
  N      427.064    -632.740     318.563
  C      427.205    -634.062     318.257
  C      426.887    -634.693     317.076
  C      426.304    -633.900     316.018
  O      425.915    -634.318     314.928
  N      427.173    -636.034     317.132
  C      427.669    -636.211     318.346
  N      427.669    -635.050     319.079
  O      430.306    -640.489     323.456
  O      429.389    -640.720     321.070
  H      427.095    -633.028     322.095
  H      429.438    -640.854     323.717
  H      425.792    -631.973     315.650
  H      428.019    -637.157     318.736
  H      428.620    -634.003     320.593
  H      425.835    -634.457     320.852
  H      425.905    -630.122     317.078
  H      426.129    -636.857     321.090
  H      426.550    -630.307     318.679
  H      428.463    -636.162     322.981
  H      427.816    -638.543     323.003
  H      427.913    -638.621     321.241
  P      424.272    -636.309     322.960
  C      422.541    -634.577     322.069
  O      423.832    -634.812     322.618
  O      423.794    -636.517     324.480
  O      423.742    -637.376     322.052
  H      422.925    -636.954     324.506
  H      422.309    -633.514     322.151
  H      421.776    -635.141     322.617
  H      422.532    -634.871     321.017
  H      433.134    -638.995     320.235
  H      431.761    -637.969     320.576
  H      431.572    -639.369     319.548

 3  4  5  6  7  8  9  10  11  12  23  26  30  31 0
 6-311+G(2d,p)
 ****
 33  35  36  37  38 0
 6-311+G(2d,p)
 ****
 1  2  13  14  15  16  17  18  19  20  21  22  24  25 0
 3-21G
 ****
 27  28  29  32  34  39  40  41  42  43  44  45  46  47  48  49 0
 3-21G
 ****


