%nproc=1
%NoSave
%Mem=1900MB
#P OB98/GEN NMR

erre ene a

0 1
  C      221.493     -16.480      36.618
  O      222.045     -17.749      36.330
  H      222.086     -15.714      36.110
  H      221.522     -16.293      37.696
  H      220.462     -16.426      36.259
  P      221.344     -19.007      37.039
  C      223.213     -18.913      38.832
  O      222.482     -19.720      37.919
  C      223.797     -19.772      39.953
  O      224.614     -18.972      40.835
  C      222.753     -20.462      40.827
  O      222.308     -21.668      40.230
  C      223.547     -20.695      42.103
  O      224.400     -21.856      41.978
  C      224.386     -19.416      42.199
  N      224.010     -17.358      46.797
  C      224.661     -18.501      46.384
  N      225.282     -19.226      47.341
  N      224.692     -18.912      45.142
  C      223.980     -18.124      44.303
  C      223.293     -16.968      44.591
  C      223.313     -16.494      45.959
  O      222.828     -15.447      46.371
  N      222.709     -16.444      43.465
  C      223.019     -17.298      42.507
  N      223.782     -18.340      42.968
  O      221.116     -20.039      35.831
  O      220.064     -18.716      37.744
  H      225.010     -21.885      42.737
  H      220.263     -20.491      35.964
  H      224.046     -17.073      47.762
  H      222.724     -17.204      41.471
  H      225.369     -19.601      42.647
  H      222.891     -20.887      42.954
  H      225.055     -19.129      48.322
  H      221.911     -19.791      41.040
  H      225.695     -20.103      47.048
  H      224.459     -20.514      39.486
  H      222.540     -18.163      39.262
  H      224.021     -18.406      38.297
  P      220.730     -21.916      40.109
  C      220.368     -21.548      42.653
  O      220.198     -22.415      41.539
  O      220.643     -23.231      39.198
  O      219.968     -20.790      39.498
  H      220.359     -22.993      38.296
  H      219.968     -22.012      43.530
  H      219.854     -20.628      42.470
  H      221.410     -21.352      42.797

 6  7  8  9  10  11  12  13  14  15  26  29  33  34 0
 6-311+G(2d,p)
 ****
 36  38  39  40  41 0
 6-311+G(2d,p)
 ****
 1  2  3  4  5  16  17  18  19  20  21  22  23  24  25 0
 3-21G
 ****
 27  28  30  31  32  35  37  42  43  44  45  46  47 0
 3-21G
 ****
 48  49 0
 3-21G
 ****


