%nproc=1
%NoSave
%Mem=1900MB
#P OB98/GEN NMR

erre ene a

0 1
  C      -10.201     339.347    -715.854
  O      -10.186     340.223    -714.740
  H      -11.238     339.101    -716.086
  H       -9.663     338.427    -715.629
  H       -9.754     339.837    -716.729
  P       -8.770     340.706    -714.170
  C       -9.519     339.833    -711.852
  O       -8.976     340.921    -712.594
  C      -10.500     340.351    -710.796
  O       -9.805     341.098    -709.782
  C      -11.583     341.283    -711.352
  O      -12.635     340.538    -711.938
  C      -12.009     341.996    -710.080
  O      -12.857     341.125    -709.293
  C      -10.656     342.189    -709.363
  N      -10.166     347.081    -708.078
  C      -11.055     346.135    -707.623
  N      -11.966     346.553    -706.721
  N      -11.063     344.887    -708.029
  C      -10.149     344.634    -708.980
  C       -9.214     345.487    -709.527
  C       -9.177     346.844    -709.027
  O       -8.378     347.706    -709.383
  N       -8.502     344.888    -710.536
  C       -8.970     343.656    -710.572
  N       -9.975     343.441    -709.651
  O       -8.142     341.872    -714.869
  O       -7.850     339.397    -714.240
  H      -12.986     341.555    -708.425
  H       -7.356     339.351    -715.081
  H      -10.207     348.029    -707.741
  H       -8.614     342.868    -711.233
  H      -10.761     342.131    -708.270
  H      -12.574     342.905    -710.273
  H      -12.105     347.525    -706.493
  H      -11.164     342.020    -712.044
  H      -12.670     345.885    -706.419
  H      -10.961     339.475    -710.306
  H       -8.686     339.312    -711.369
  H      -10.039     339.140    -712.525
  P      -13.536     341.141    -713.131
  C      -15.554     340.751    -711.557
  O      -15.022     340.587    -712.860
  O      -13.010     340.889    -714.503
  O      -13.684     342.690    -712.750
  H      -12.932     343.242    -713.075
  H      -16.541     340.340    -711.520
  H      -15.592     341.793    -711.316
  H      -14.930     340.244    -710.851

 6  7  8  9  10  11  12  13  14  15  26  29  33  34 0
 6-311+G(2d,p)
 ****
 36  38  39  40  41 0
 6-311+G(2d,p)
 ****
 1  2  3  4  5  16  17  18  19  20  21  22  23  24  25 0
 3-21G
 ****
 27  28  30  31  32  35  37  42  43  44  45  46  47 0
 3-21G
 ****
 48  49 0
 3-21G
 ****


