%nproc=1
%NoSave
%Mem=1900MB
#P OB98/GEN NMR

erre ene a

0 1
  C     -124.017      54.092     359.127
  O     -124.151      55.199     359.996
  H     -124.792      54.149     358.362
  H     -124.135      53.158     359.683
  H     -123.034      54.112     358.640
  P     -123.083      55.313     361.188
  C     -124.908      55.479     363.041
  O     -123.811      54.745     362.502
  C     -126.078      54.532     363.293
  O     -126.362      53.776     362.093
  C     -125.818      53.498     364.378
  O     -125.948      54.035     365.680
  C     -126.868      52.452     364.043
  O     -128.147      52.795     364.599
  C     -126.921      52.510     362.514
  N     -127.054      47.522     361.416
  C     -127.977      48.350     361.957
  N     -127.864      49.675     362.204
  C     -126.666      50.134     361.805
  C     -125.631      49.410     361.238
  C     -125.863      48.036     361.038
  N     -124.918      47.185     360.511
  N     -124.542      50.221     360.997
  C     -124.908      51.416     361.410
  N     -126.188      51.413     361.902
  O     -123.002      56.890     361.449
  O     -121.742      54.725     360.896
  H     -128.001      52.938     365.554
  H     -122.206      57.250     361.012
  H     -128.920      47.892     362.236
  H     -124.295      52.308     361.381
  H     -127.949      52.463     362.130
  H     -126.584      51.476     364.440
  H     -124.822      53.055     364.243
  H     -126.967      55.138     363.536
  H     -125.207      56.252     362.326
  H     -124.590      55.958     363.971
  H     -125.125      46.201     360.462
  H     -123.985      47.536     360.332
  P     -124.649      54.030     366.622
  C     -125.764      52.203     368.120
  O     -124.617      52.617     367.382
  O     -125.014      55.072     367.783
  O     -123.379      54.389     365.931
  H     -124.211      55.559     368.057
  H     -125.578      51.246     368.561
  H     -126.606      52.135     367.463
  H     -125.970      52.917     368.890

 6  7  8  9  10  11  12  13  14  15  25  28  32  33  34  35 0
 6-311+G(2d,p)
 ****
 36  37  40 0
 6-311+G(2d,p)
 ****
 1  2  3  4  5  16  17  18  19  20  21  22  23  24 0
 3-21G
 ****
 26  27  29  30  31  38  39 41  42  43  44  45  46  47  48 0
 3-21G
 ****


