%nproc=1
%NoSave
%Mem=1900MB
#P OB98/GEN NMR

erre ene a

0 1
  C       68.627    -652.501     153.907
  O       68.445    -651.880     152.630
  P       68.164    -650.313     152.443
  C       69.885    -649.178     150.888
  O       68.635    -649.856     150.981
  C       70.455    -649.243     149.466
  O       70.779    -650.594     149.106
  C       69.507    -648.749     148.372
  O       69.435    -647.327     148.367
  C       70.147    -649.361     147.134
  O       71.241    -648.557     146.661
  C       70.654    -650.714     147.673
  N       69.774    -651.826     147.302
  C       69.777    -652.190     145.952
  O       70.444    -651.560     145.127
  N       68.996    -653.266     145.560
  C       68.233    -653.852     146.423
  N       67.489    -654.902     145.984
  C       68.132    -653.438     147.841
  C       68.933    -652.422     148.202
  O       68.709    -649.464     153.551
  O       66.563    -650.181     152.380
  H       71.883    -648.506     147.389
  H       66.300    -649.320     152.752
  H       67.469    -653.935     148.529
  H       68.927    -652.068     149.220
  H       71.663    -650.925     147.294
  H       69.438    -649.459     146.301
  H       68.511    -649.181     148.531
  H       71.385    -648.659     149.456
  H       67.578    -655.161     145.011
  H       70.588    -649.664     151.579
  H       66.866    -655.429     146.574
  H       69.754    -648.138     151.200
  P       68.025    -646.602     148.128
  C       68.089    -644.724     149.878
  O       68.202    -645.062     148.496
  O       66.841    -647.279     148.752
  O       67.894    -646.573     146.529
  H       66.947    -646.624     146.293
  H       68.608    -643.775     150.045
  H       68.541    -645.499     150.504
  H       67.041    -644.603     150.133
  H       68.800    -653.548     153.773
  H       67.749    -652.357     154.502
  H       69.468    -652.061     154.401

 3  4  5  6  7  8  9  10  11  12  13  23  27  28  29  30  32 0
 6-311+G(2d,p)
 ****
 34  35 0
 6-311+G(2d,p)
 ****
 1  2  14  15  16  17  18  19  20  21  22  24  25  26 0
 3-21G
 ****
 31  33  36  37  38  39  40  41  42  43  44  45  46 0
 3-21G
 ****


