%nproc=1
%NoSave
%Mem=1900MB
#P OB98/GEN NMR

erre ene a

0 1
  C     -626.776     158.085    -875.073
  O     -626.493     158.964    -873.997
  H     -626.110     158.325    -875.907
  H     -627.807     158.210    -875.417
  H     -626.604     157.048    -874.769
  P     -627.449     158.920    -872.708
  C     -625.681     159.368    -870.865
  O     -626.762     159.889    -871.635
  C     -624.569     160.399    -870.750
  O     -623.952     160.615    -872.038
  C     -625.059     161.771    -870.294
  O     -625.323     161.766    -868.900
  C     -623.910     162.654    -870.738
  O     -622.813     162.594    -869.820
  C     -623.536     162.009    -872.099
  N     -624.132     162.698    -873.237
  C     -623.326     163.631    -873.887
  O     -622.164     163.829    -873.488
  N     -623.848     164.320    -874.946
  C     -625.057     164.093    -875.346
  N     -625.511     164.812    -876.401
  C     -625.951     163.108    -874.698
  C     -625.424     162.448    -873.659
  O     -627.804     157.561    -872.181
  O     -628.741     159.744    -873.176
  H     -623.143     162.960    -868.982
  H     -629.402     159.149    -873.584
  H     -626.946     162.941    -875.057
  H     -626.013     161.699    -873.118
  H     -622.441     161.998    -872.227
  H     -624.219     163.691    -870.824
  H     -625.950     162.059    -870.853
  H     -623.796     160.008    -870.066
  H     -624.875     165.490    -876.808
  H     -625.328     158.471    -871.379
  H     -626.407     164.660    -876.851
  H     -626.028     159.072    -869.864
  P     -626.838     161.835    -868.364
  C     -626.446     159.882    -866.710
  O     -626.773     161.270    -866.851
  O     -627.858     161.202    -869.243
  O     -627.075     163.408    -868.135
  H     -627.198     163.869    -869.006
  H     -626.432     159.622    -865.672
  H     -625.482     159.697    -867.137
  H     -627.179     159.290    -867.216

 6  7  8  9  10  11  12  13  14  15  16  26  30  31  32  33  35 0
 6-311+G(2d,p)
 ****
 37  38 0
 6-311+G(2d,p)
 ****
 1  2  3  4  5  17  18  19  20  21  22  23  24  25 0
 3-21G
 ****
 27  28  29  34  36  39  40  41  42  43  44  45  46 0
 3-21G
 ****


