%nproc=1
%NoSave
%Mem=1900MB
#P OB98/GEN NMR

erre ene a

0 1
  C       35.138    -454.887    -188.138
  O       36.310    -454.551    -187.432
  H       35.383    -455.653    -188.879
  H       34.753    -454.005    -188.661
  H       34.374    -455.282    -187.460
  P       36.132    -453.586    -186.154
  C       37.071    -455.588    -184.793
  O       36.112    -454.547    -184.863
  C       36.701    -456.574    -183.682
  O       35.500    -457.306    -184.049
  C       37.766    -457.620    -183.392
  O       38.777    -457.122    -182.526
  C       36.932    -458.688    -182.706
  O       36.655    -458.296    -181.344
  C       35.642    -458.665    -183.538
  N       34.325    -463.315    -185.075
  C       34.181    -462.714    -183.840
  N       33.610    -463.461    -182.872
  N       34.564    -461.491    -183.572
  C       35.123    -460.862    -184.633
  C       35.324    -461.350    -185.909
  C       34.887    -462.701    -186.189
  O       34.974    -463.274    -187.271
  N       35.924    -460.419    -186.719
  C       36.093    -459.371    -185.926
  N       35.634    -459.595    -184.650
  O       34.612    -453.098    -186.271
  O       37.071    -452.430    -186.086
  H       37.472    -458.451    -180.837
  H       34.551    -452.175    -185.964
  H       34.025    -464.261    -185.221
  H       36.550    -458.440    -186.239
  H       34.752    -458.880    -182.931
  H       37.434    -459.658    -182.658
  H       33.340    -464.424    -182.992
  H       38.196    -458.036    -184.319
  H       33.459    -463.033    -181.963
  H       36.469    -455.997    -182.782
  H       38.055    -455.157    -184.576
  H       37.113    -456.104    -185.757
  P       40.155    -456.626    -183.186
  C       40.593    -454.538    -181.707
  O       40.190    -455.036    -182.977
  O       39.874    -456.781    -184.765
  O       41.370    -457.373    -182.757
  H       40.717    -456.867    -185.243
  H       40.567    -453.468    -181.719
  H       41.588    -454.868    -181.494
  H       39.927    -454.903    -180.953

 6  7  8  9  10  11  12  13  14  15  26  29  33  34 0
 6-311+G(2d,p)
 ****
 36  38  39  40  41 0
 6-311+G(2d,p)
 ****
 1  2  3  4  5  16  17  18  19  20  21  22  23  24  25 0
 3-21G
 ****
 27  28  30  31  32  35  37  42  43  44  45  46  47 0
 3-21G
 ****
 48  49 0
 3-21G
 ****


