%nproc=1
%NoSave
%Mem=1900MB
#P OB98/GEN NMR

erre ene a

0 1
  C      418.396     346.678     284.682
  O      418.907     347.962     284.965
  H      417.999     346.249     285.603
  H      419.200     346.036     284.310
  H      417.593     346.727     283.943
  P      419.222     348.956     283.750
  C      418.052     350.942     284.918
  O      418.097     350.104     283.778
  C      417.195     352.183     284.662
  O      417.814     352.999     283.635
  C      415.814     351.777     284.134
  O      414.807     352.729     284.478
  C      416.014     351.796     282.623
  O      414.792     351.933     281.903
  C      416.968     352.972     282.459
  N      418.615     355.359     278.280
  C      417.656     355.751     279.197
  N      417.040     356.940     278.946
  N      417.320     355.053     280.248
  C      417.966     353.867     280.326
  C      418.922     353.345     279.471
  C      419.311     354.158     278.329
  O      420.134     353.843     277.478
  N      419.328     352.103     279.865
  C      418.624     351.854     280.951
  N      417.792     352.903     281.280
  O      418.822     348.110     282.452
  O      420.634     349.453     283.666
  H      415.017     352.080     280.960
  H      419.309     348.430     281.674
  H      418.850     355.947     277.496
  H      418.683     350.943     281.543
  H      416.417     353.915     282.430
  H      416.458     350.839     282.328
  H      417.140     357.417     278.070
  H      415.506     350.788     284.494
  H      416.147     357.091     279.427
  H      417.139     352.799     285.565
  H      419.081     351.242     285.138
  H      417.677     350.385     285.782
  P      413.434     352.167     285.092
  C      412.564     354.170     286.555
  O      413.191     352.901     286.496
  O      413.792     350.651     285.498
  O      412.280     352.243     284.153
  H      413.384     350.039     284.852
  H      412.495     354.487     287.575
  H      411.582     354.102     286.136
  H      413.141     354.879     285.999

 6  7  8  9  10  11  12  13  14  15  26  29  33  34 0
 6-311+G(2d,p)
 ****
 36  38  39  40  41 0
 6-311+G(2d,p)
 ****
 1  2  3  4  5  16  17  18  19  20  21  22  23  24  25 0
 3-21G
 ****
 27  28  30  31  32  35  37  42  43  44  45  46  47 0
 3-21G
 ****
 48  49 0
 3-21G
 ****


