%nproc=1
%NoSave
%Mem=1900MB
#P OB98/GEN NMR

erre ene a

0 1
  C       -6.213     366.032     -40.484
  O       -7.280     365.139     -40.206
  P       -6.988     363.917     -39.213
  C       -5.534     361.755     -39.331
  O       -6.132     362.833     -40.030
  C       -5.283     360.590     -40.292
  O       -6.534     360.024     -40.731
  C       -4.541     360.996     -41.558
  O       -3.155     361.135     -41.325
  C       -4.891     359.847     -42.498
  O       -4.016     358.725     -42.281
  C       -6.331     359.504     -42.065
  N       -7.330     360.010     -43.003
  C       -7.848     359.080     -43.899
  O       -7.482     357.902     -43.929
  N       -8.776     359.551     -44.788
  C       -9.188     360.853     -44.904
  O       -9.981     361.228     -45.760
  C       -8.580     361.796     -43.949
  C       -7.696     361.345     -43.063
  O       -8.418     363.219     -39.038
  O       -6.393     364.307     -37.903
  H       -3.111     359.034     -42.486
  H       -8.507     362.876     -38.125
  H       -9.182     358.890     -45.430
  H       -8.887     362.833     -44.012
  H       -7.228     362.022     -42.360
  H       -6.453     358.415     -41.985
  H       -4.794     360.129     -43.550
  H       -4.970     361.926     -41.962
  H       -4.726     359.808     -39.756
  H       -6.199     361.435     -38.523
  H       -4.591     362.095     -38.888
  P       -2.423     362.388     -42.027
  C       -2.221     363.063     -44.546
  O       -2.408     362.036     -43.590
  O       -0.916     362.164     -41.534
  O       -3.017     363.701     -41.645
  H       -0.697     361.222     -41.429
  H       -1.528     363.828     -44.181
  H       -3.187     363.522     -44.780
  H       -1.812     362.623     -45.458
  H       -6.551     366.793     -41.157
  H       -5.404     365.493     -40.932
  H       -5.879     366.484     -39.573

 3  4  5  6  7  8  9  10  11  12  13  23  28  29  30  31  32 0
 6-311+G(2d,p)
 ****
 33  34 0
 6-311+G(2d,p)
 ****
 1  2  14  15  16  17  18  19  20  21  22  24  25  26 0
 3-21G
 ****
 27  35  36  37  38  39  40  41  42  43  44  45 0
 3-21G
 ****


