%nproc=1
%NoSave
%Mem=1900MB
#P OB98/GEN NMR

erre ene a

0 1
  C      -77.018     168.417    -235.464
  O      -77.905     169.528    -235.414
  P      -79.474     169.234    -235.598
  C      -79.104     169.733    -238.119
  O      -79.666     168.860    -237.146
  C      -79.969     169.761    -239.377
  O      -80.043     168.443    -239.958
  C      -81.409     170.189    -239.146
  O      -81.547     171.601    -239.087
  C      -82.077     169.644    -240.397
  O      -81.827     170.529    -241.508
  C      -81.340     168.315    -240.601
  N      -85.049     164.892    -241.423
  C      -84.632     165.956    -242.142
  N      -83.639     166.825    -241.852
  C      -83.090     166.536    -240.659
  C      -83.439     165.510    -239.799
  C      -84.465     164.650    -240.224
  N      -84.872     163.552    -239.501
  N      -82.649     165.536    -238.670
  C      -81.830     166.552    -238.848
  N      -82.051     167.182    -240.043
  O      -80.131     170.692    -235.487
  O      -80.058     168.279    -234.612
  H      -82.430     171.291    -241.402
  H      -81.067     170.617    -235.219
  H      -85.152     166.121    -243.081
  H      -81.064     166.858    -238.151
  H      -81.155     168.100    -241.659
  H      -83.166     169.557    -240.297
  H      -81.835     169.699    -238.260
  H      -79.482     170.422    -240.107
  H      -78.104     169.380    -238.382
  H      -85.478     162.886    -239.956
  H      -84.303     163.262    -238.714
  H      -79.022     170.740    -237.691
  P      -82.576     172.181    -237.997
  C      -84.399     173.457    -239.337
  O      -83.994     172.240    -238.740
  O      -82.138     173.716    -237.866
  O      -82.542     171.467    -236.687
  H      -82.388     174.069    -236.996
  H      -85.205     173.248    -240.044
  H      -83.573     173.927    -239.879
  H      -84.773     174.138    -238.568
  H      -76.013     168.757    -235.328
  H      -77.105     167.933    -236.414
  H      -77.269     167.725    -234.687

 3  4  5  6  7  8  9  10  11  12  22  25  29  30  31  32 0
 6-311+G(2d,p)
 ****
 33  36  37 0
 6-311+G(2d,p)
 ****
 1  2  13  14  15  16  17  18  19  20  21  23  24  26 0
 3-21G
 ****
 27  28  34  35  38  39  40  41  42  43  44  45  46  47  48 0
 3-21G
 ****


