%nproc=1
%NoSave
%Mem=1900MB
#P OB98/GEN NMR

erre ene a

0 1
  C      302.162    -169.083    -675.314
  O      302.975    -167.971    -674.999
  H      301.382    -169.171    -674.553
  H      302.760    -169.998    -675.306
  H      301.686    -168.956    -676.290
  P      304.087    -167.506    -676.053
  C      303.253    -165.071    -675.831
  O      303.561    -166.143    -676.710
  C      302.965    -163.789    -676.618
  O      304.139    -163.456    -677.414
  C      301.770    -163.899    -677.591
  O      301.191    -162.592    -677.693
  C      302.489    -164.288    -678.875
  O      301.660    -164.195    -680.006
  C      303.692    -163.338    -678.782
  N      304.784    -163.624    -679.708
  C      304.664    -163.160    -681.011
  O      303.710    -162.518    -681.440
  N      305.709    -163.461    -681.848
  C      306.836    -164.152    -681.510
  O      307.755    -164.364    -682.293
  C      306.900    -164.622    -680.119
  C      305.891    -164.341    -679.297
  O      304.535    -168.546    -677.024
  O      305.298    -167.007    -675.128
  H      305.990    -167.693    -675.094
  H      302.020    -164.782    -680.710
  H      305.643    -163.124    -682.795
  H      307.775    -165.187    -679.822
  H      305.915    -164.671    -678.261
  H      303.362    -162.305    -678.928
  H      302.804    -165.330    -678.822
  H      301.015    -164.613    -677.262
  H      302.818    -162.964    -675.907
  H      304.114    -164.912    -675.172
  H      302.385    -165.345    -675.220
  P      299.995    -162.080    -676.749
  C      301.256    -160.022    -675.827
  O      300.640    -161.264    -675.522
  O      299.058    -163.166    -676.320
  O      299.231    -160.962    -677.605
  H      298.303    -160.906    -677.309
  H      301.642    -159.585    -674.930
  H      300.534    -159.363    -676.263
  H      302.057    -160.181    -676.519

 6  7  8  9  10  11  12  13  14  15  16  27  31  32  33  34  35 0
 6-311+G(2d,p)
 ****
 36  37 0
 6-311+G(2d,p)
 ****
 1  2  3  4  5  17  18  19  20  21  22  23  24  25 0
 3-21G
 ****
 26  28  29  30  38  39  40  41  42  43  44  45 0
 3-21G
 ****


