%nproc=1
%NoSave
%Mem=1900MB
#P OB98/GEN NMR

erre ene a

0 1
  C       -4.066     -12.690       5.427
  O       -3.010     -12.397       4.529
  P       -1.565     -12.091       5.160
  C       -2.194      -9.610       5.608
  O       -1.760     -10.849       6.157
  C       -2.001      -8.463       6.600
  O       -2.580      -8.841       7.872
  C       -0.539      -8.083       6.838
  O       -0.476      -6.665       6.998
  C       -0.214      -8.742       8.165
  O        0.865      -8.087       8.829
  C       -1.569      -8.652       8.884
  N       -1.692      -9.637       9.954
  C       -1.211      -9.266      11.212
  O       -0.642      -8.185      11.360
  N       -1.340     -10.148      12.257
  C       -1.808     -11.337      12.038
  N       -1.918     -12.173      13.105
  C       -2.212     -11.811      10.700
  C       -2.148     -10.912       9.719
  O       -0.766     -11.454       3.929
  O       -0.871     -13.283       5.731
  H        0.831      -8.333       9.781
  H        0.183     -11.675       3.979
  H       -2.561     -12.824      10.565
  H       -2.446     -11.163       8.710
  H       -1.712      -7.652       9.314
  H        0.065      -9.790       8.002
  H        0.119      -8.392       6.022
  H       -2.563      -7.596       6.233
  H       -1.620     -11.830      14.009
  H       -3.259      -9.681       5.371
  H       -2.271     -13.118      13.029
  H       -1.650      -9.415       4.679
  P        0.930      -5.946       6.720
  C        1.236      -5.502       9.230
  O        1.764      -6.129       8.078
  O        0.519      -4.397       6.805
  O        1.640      -6.247       5.444
  H        1.289      -3.841       6.587
  H        1.820      -5.819      10.099
  H        0.194      -5.793       9.381
  H        1.314      -4.416       9.132
  H       -4.964     -12.872       4.874
  H       -4.215     -11.860       6.086
  H       -3.817     -13.559       5.999

 3  4  5  6  7  8  9  10  11  12  13  21  23  27  28  29  30  32 0
 6-311+G(2d,p)
 ****
 34  35 0
 6-311+G(2d,p)
 ****
 1  2  14  15  16  17  18  19  20  22  24  25  26 0
 3-21G
 ****
 31  33  36  37  38  39  40  41  42  43  44  45  46 0
 3-21G
 ****


