%nproc=1
%NoSave
%Mem=1900MB
#P OB98/GEN NMR

erre ene a

0 1
  C      262.385     616.325    -274.013
  O      262.142     617.547    -274.676
  H      263.429     616.263    -273.701
  H      261.748     616.275    -273.124
  H      262.139     615.482    -274.668
  P      263.005     617.834    -276.001
  C      264.221     619.703    -274.660
  O      263.524     619.345    -275.844
  C      264.333     621.223    -274.578
  O      265.071     621.727    -275.712
  C      262.985     621.937    -274.609
  O      262.356     621.970    -273.336
  C      263.415     623.330    -275.049
  O      263.999     624.032    -273.939
  C      264.487     623.007    -276.106
  N      261.657     625.288    -279.706
  C      262.043     625.687    -278.471
  N      262.813     625.030    -277.585
  C      263.204     623.841    -278.076
  C      262.897     623.309    -279.321
  C      262.072     624.086    -280.160
  N      261.652     623.666    -281.403
  N      263.465     622.057    -279.461
  C      264.118     621.855    -278.332
  N      263.963     622.894    -277.452
  O      261.905     617.946    -277.158
  O      264.078     616.841    -276.308
  H      263.271     624.254    -273.323
  H      262.325     617.898    -278.035
  H      261.678     626.663    -278.160
  H      264.708     620.975    -278.103
  H      265.297     623.749    -276.126
  H      262.578     623.936    -275.408
  H      262.322     621.514    -275.370
  H      264.895     621.481    -273.675
  H      265.224     619.267    -274.687
  H      260.947     624.227    -281.856
  H      261.837     622.717    -281.682
  H      263.684     619.323    -273.789
  P      260.822     621.492    -273.256
  C      260.159     623.496    -271.749
  O      260.235     622.082    -271.885
  O      260.960     619.925    -272.954
  O      260.023     621.767    -274.486
  H      260.220     619.425    -273.355
  H      259.751     623.741    -270.791
  H      259.530     623.895    -272.517
  H      261.139     623.916    -271.837

 6  7  8  9  10  11  12  13  14  15  25  28  32  33  34  35 0
 6-311+G(2d,p)
 ****
 36  39  40 0
 6-311+G(2d,p)
 ****
 1  2  3  4  5  16  17  18  19  20  21  22  23  24 0
 3-21G
 ****
 26  27  29  30  31  37  38  41  42  43  44  45  46  47 0
 3-21G
 ****
 48 0
 3-21G
 ****


