%nproc=1
%NoSave
%Mem=1900MB
#P OB98/GEN NMR

erre ene a

0 1
  C      900.268    -201.145    1011.796
  O      901.646    -201.079    1012.131
  H      900.168    -201.708    1010.854
  H      899.874    -200.137    1011.636
  H      899.710    -201.653    1012.575
  P      902.013    -200.263    1013.468
  C      901.560    -202.145    1015.206
  O      902.537    -201.358    1014.526
  C      901.954    -203.620    1015.170
  O      901.726    -204.181    1013.850
  C      903.418    -203.891    1015.501
  O      903.619    -203.934    1016.907
  C      903.641    -205.258    1014.846
  O      903.124    -206.321    1015.668
  C      902.800    -205.110    1013.557
  N      902.543    -203.913    1008.659
  C      901.556    -204.295    1009.520
  N      900.312    -204.426    1009.011
  N      901.741    -204.542    1010.797
  C      903.041    -204.386    1011.169
  C      904.126    -203.993    1010.406
  C      903.877    -203.707    1009.000
  O      904.696    -203.298    1008.204
  N      905.278    -203.955    1011.143
  C      904.902    -204.344    1012.359
  N      903.565    -204.646    1012.412
  O      900.575    -199.852    1014.054
  O      902.893    -199.082    1013.271
  H      903.567    -206.298    1016.523
  H      900.661    -199.003    1014.534
  H      902.319    -203.718    1007.693
  H      905.568    -204.431    1013.209
  H      902.339    -206.061    1013.273
  H      904.688    -205.446    1014.675
  H      900.165    -204.589    1008.018
  H      904.073    -203.152    1015.024
  H      899.574    -204.738    1009.639
  H      901.288    -204.164    1015.863
  H      900.598    -202.025    1014.699
  H      901.473    -201.798    1016.234
  P      905.093    -203.579    1017.459
  C      904.394    -201.131    1017.990
  O      904.933    -202.365    1018.487
  O      905.807    -202.901    1016.195
  O      905.868    -204.749    1017.966
  H      906.775    -202.893    1016.318
  H      904.346    -200.417    1018.785
  H      903.411    -201.301    1017.604
  H      905.023    -200.755    1017.210

 6  7  8  9  10  11  12  13  14  15  26  29  33  34 0
 6-311+G(2d,p)
 ****
 36  38  39  40  41 0
 6-311+G(2d,p)
 ****
 1  2  3  4  5  16  17  18  19  20  21  22  23  24  25 0
 3-21G
 ****
 27  28  30  31  32  35  37  42  43  44  45  46  47 0
 3-21G
 ****
 48  49 0
 3-21G
 ****


