%nproc=1
%NoSave
%Mem=1900MB
#P OB98/GEN NMR

erre ene a

0 1
  C     -589.185    -276.591     -58.735
  O     -590.247    -277.253     -59.436
  P     -590.718    -278.697     -58.953
  C     -593.310    -278.514     -58.940
  O     -592.119    -278.571     -58.163
  C     -593.672    -277.072     -59.265
  O     -592.705    -276.471     -60.161
  C     -594.998    -276.933     -59.993
  O     -596.170    -277.221     -59.248
  C     -594.899    -275.552     -60.619
  O     -595.252    -274.526     -59.679
  C     -593.383    -275.481     -60.967
  N     -593.121    -275.674     -62.385
  C     -593.500    -274.625     -63.229
  O     -594.065    -273.618     -62.816
  N     -593.233    -274.811     -64.551
  C     -592.680    -275.923     -65.125
  O     -592.492    -276.038     -66.324
  C     -592.328    -277.003     -64.189
  C     -592.557    -276.836     -62.879
  O     -589.690    -279.533     -58.279
  O     -591.186    -279.393     -60.329
  H     -595.073    -273.667     -60.098
  H     -590.878    -280.318     -60.314
  H     -593.489    -274.056     -65.180
  H     -591.889    -277.908     -64.608
  H     -592.310    -277.626     -62.174
  H     -592.982    -274.502     -60.678
  H     -595.572    -275.443     -61.476
  H     -595.008    -277.652     -60.825
  H     -593.664    -276.488     -58.336
  H     -594.127    -278.997     -58.386
  H     -593.163    -279.104     -59.851
  P     -597.353    -278.152     -59.796
  C     -597.202    -280.085     -58.080
  O     -597.024    -279.680     -59.410
  O     -597.853    -277.889     -61.189
  O     -598.532    -277.815     -58.772
  H     -599.389    -277.873     -59.241
  H     -596.913    -281.140     -57.996
  H     -598.259    -279.997     -57.788
  H     -596.578    -279.505     -57.401
  H     -588.998    -275.640     -59.187
  H     -588.299    -277.189     -58.783
  H     -589.466    -276.450     -57.712

 3  4  5  6  7  8  9  10  11  12  13  23  28  29  30  31  32 0
 6-311+G(2d,p)
 ****
 33  34 0
 6-311+G(2d,p)
 ****
 1  2  14  15  16  17  18  19  20  21  22  24  25  26  27 0
 3-21G
 ****
 35  36  37  38  39  40  41  42  43  44  45 0
 3-21G
 ****


