%nproc=1
%NoSave
%Mem=1900MB
#P OB98/GEN NMR

erre ene a

0 1
  C      239.157     106.635    -318.108
  O      239.965     107.576    -318.803
  P      241.447     107.119    -319.221
  C      242.049     109.636    -318.971
  O      242.420     108.283    -318.703
  C      242.843     110.593    -318.083
  O      242.709     110.216    -316.700
  C      244.338     110.621    -318.362
  O      244.667     111.447    -319.466
  C      244.861     111.228    -317.070
  O      244.672     112.651    -317.085
  C      243.941     110.586    -316.023
  N      245.792     108.655    -311.666
  C      245.360     109.891    -311.987
  N      244.889     110.331    -313.175
  C      244.933     109.349    -314.095
  C      245.387     108.053    -313.923
  C      245.819     107.702    -312.632
  N      246.239     106.434    -312.298
  N      245.279     107.338    -315.095
  C      244.760     108.184    -315.959
  N      244.522     109.410    -315.400
  O      241.451     107.314    -320.808
  O      241.814     105.731    -318.824
  H      245.092     112.987    -317.900
  H      242.136     106.746    -321.215
  H      245.385     110.623    -311.188
  H      244.533     107.955    -316.993
  H      243.673     111.285    -315.221
  H      245.927     111.047    -316.916
  H      244.741     109.603    -318.478
  H      242.411     111.595    -318.205
  H      240.984     109.758    -318.763
  H      246.357     106.221    -311.323
  H      246.068     105.690    -312.962
  H      242.231     109.850    -320.026
  P      245.139     110.711    -320.813
  C      245.680     113.098    -321.675
  O      246.100     111.752    -321.553
  O      243.811     110.701    -321.706
  O      245.684     109.338    -320.595
  H      243.830     109.964    -322.341
  H      246.553     113.717    -321.909
  H      245.237     113.464    -320.740
  H      244.953     113.192    -322.483
  H      238.204     107.072    -317.895
  H      239.637     106.361    -317.191
  H      239.023     105.764    -318.714

 3  4  5  6  7  8  9  10  11  12  22  25  29  30  31  32 0
 6-311+G(2d,p)
 ****
 33  36  37 0
 6-311+G(2d,p)
 ****
 1  2  13  14  15  16  17  18  19  20  21  23  24  26 0
 3-21G
 ****
 27  28  34  35  38  39  40  41  42  43  44  45  46  47  48 0
 3-21G
 ****


