%nproc=1
%NoSave
%Mem=1900MB
#P OB98/GEN NMR

erre ene a

0 1
  C      119.976      71.014     316.099
  O      119.860      70.289     314.884
  P      121.226      69.855     314.160
  C      120.699      71.311     312.053
  O      121.580      71.031     313.130
  C      121.126      72.606     311.355
  O      120.815      73.743     312.188
  C      122.612      72.695     311.055
  O      122.921      71.984     309.865
  C      122.815      74.199     310.944
  O      122.416      74.678     309.645
  C      121.878      74.729     312.041
  N      123.084      78.231     315.479
  C      122.568      78.378     314.205
  N      122.293      79.641     313.807
  N      122.340      77.377     313.393
  C      122.674      76.176     313.916
  C      123.203      75.901     315.160
  C      123.403      77.009     316.065
  O      123.766      76.925     317.232
  N      123.434      74.562     315.327
  C      123.012      74.022     314.201
  N      122.520      74.959     313.319
  O      120.770      68.637     313.224
  O      122.347      69.484     315.079
  H      122.505      75.647     309.618
  H      120.976      67.785     313.650
  H      123.223      79.034     316.066
  H      123.019      72.967     313.983
  H      121.398      75.676     311.751
  H      123.860      74.488     311.076
  H      122.463      80.460     314.369
  H      123.199      72.305     311.897
  H      121.919      79.766     312.876
  H      120.539      72.701     310.433
  H      119.681      71.426     312.438
  H      120.716      70.468     311.347
  P      124.459      71.594     309.611
  C      124.407      73.072     307.472
  O      125.083      72.729     308.667
  O      124.362      70.315     308.660
  O      125.235      71.295     310.853
  H      125.077      69.691     308.881
  H      124.609      74.123     307.239
  H      123.329      72.925     307.561
  H      124.787      72.446     306.657
  H      119.000      71.239     316.474
  H      120.509      71.925     315.921
  H      120.507      70.424     316.817

 3  4  5  6  7  8  9  10  11  12  23  26  30  31 0
 6-311+G(2d,p)
 ****
 33  35  36  37  38 0
 6-311+G(2d,p)
 ****
 1  2  13  14  15  16  17  18  19  20  21  22  24  25 0
 3-21G
 ****
 27  28  29  32  34  39  40  41  42  43  44  45  46  47  48  49 0
 3-21G
 ****


