%nproc=1
%NoSave
%Mem=1900MB
#P OB98/GEN NMR

erre ene a

0 1
  C      303.791     147.013     -69.229
  O      303.760     147.059     -67.801
  P      304.987     146.342     -67.051
  C      305.391     148.341     -65.450
  O      305.078     146.960     -65.570
  C      305.793     148.687     -64.014
  O      304.631     148.647     -63.128
  C      306.844     147.734     -63.416
  O      307.682     148.527     -62.564
  C      305.985     146.784     -62.604
  O      306.726     146.027     -61.655
  C      304.975     147.772     -62.029
  N      302.716     146.205     -57.729
  C      303.916     146.785     -57.960
  N      304.446     147.170     -59.140
  C      303.599     146.902     -60.152
  C      302.350     146.310     -60.072
  C      301.905     145.949     -58.785
  N      300.699     145.336     -58.541
  N      301.790     146.180     -61.335
  C      302.729     146.622     -62.156
  N      303.796     147.144     -61.484
  O      306.276     146.927     -67.794
  O      304.926     144.851     -67.101
  H      306.139     145.378     -61.221
  H      306.608     146.291     -68.457
  H      304.528     146.964     -57.080
  H      302.678     146.588     -63.235
  H      305.406     148.391     -61.237
  H      305.493     146.071     -63.274
  H      307.463     147.240     -64.167
  H      306.175     149.717     -63.998
  H      304.529     148.946     -65.739
  H      300.472     145.109     -57.587
  H      300.072     145.121     -59.304
  H      306.188     148.586     -66.160
  P      309.134     148.959     -63.092
  C      308.757     151.294     -62.090
  O      309.586     150.144     -62.107
  O      308.729     149.789     -64.407
  O      310.102     147.856     -63.335
  H      308.038     150.442     -64.214
  H      309.126     151.976     -61.322
  H      307.727     151.015     -61.850
  H      308.795     151.792     -63.066
  H      302.932     147.517     -69.621
  H      303.785     145.993     -69.553
  H      304.679     147.494     -69.582

 3  4  5  6  7  8  9  10  11  12  22  25  29  30  31  32 0
 6-311+G(2d,p)
 ****
 33  36  37 0
 6-311+G(2d,p)
 ****
 1  2  13  14  15  16  17  18  19  20  21  23  24  26 0
 3-21G
 ****
 27  28  34  35  38  39  40  41  42  43  44  45  46  47  48 0
 3-21G
 ****


