%nproc=1
%NoSave
%Mem=1900MB
#P OB98/GEN NMR

erre ene a

0 1
  C       86.562    -432.590    -229.672
  O       86.732    -432.512    -231.091
  P       86.617    -433.881    -231.924
  C       88.625    -433.552    -233.564
  O       87.222    -433.562    -233.378
  C       88.985    -433.030    -234.962
  O       88.280    -433.808    -235.977
  C       88.648    -431.551    -235.192
  O       89.697    -431.007    -236.008
  C       87.348    -431.613    -235.972
  O       87.112    -430.419    -236.708
  C       87.591    -432.865    -236.823
  N       86.356    -433.430    -237.360
  C       86.114    -433.233    -238.715
  O       86.841    -432.550    -239.435
  N       84.972    -433.810    -239.207
  C       84.039    -434.485    -238.477
  O       83.031    -434.982    -238.970
  C       84.292    -434.562    -237.031
  C       85.422    -434.038    -236.549
  O       85.040    -433.975    -232.161
  O       87.226    -435.047    -231.215
  H       84.617    -433.114    -232.315
  H       86.319    -430.543    -237.271
  H       84.793    -433.707    -240.193
  H       83.544    -435.036    -236.408
  H       85.628    -434.059    -235.487
  H       88.260    -432.630    -237.663
  H       86.509    -431.771    -235.284
  H       88.572    -430.982    -234.260
  H       90.059    -433.192    -235.117
  H       89.023    -434.569    -233.457
  H       89.090    -432.945    -232.783
  P       90.698    -429.934    -235.347
  C       89.680    -428.053    -236.855
  O       90.827    -428.711    -236.375
  O       92.093    -430.708    -235.529
  O       90.409    -429.591    -233.923
  H       92.215    -431.073    -236.424
  H       89.988    -427.123    -237.342
  H       88.995    -427.809    -236.043
  H       89.172    -428.682    -237.593
  H       86.663    -431.613    -229.246
  H       87.307    -433.238    -229.259
  H       85.589    -432.977    -229.450

 3  4  5  6  7  8  9  10  11  12  13  24  28  29  30  31  32 0
 6-311+G(2d,p)
 ****
 33  34 0
 6-311+G(2d,p)
 ****
 1  2  14  15  16  17  18  19  20  21  22  23  25  26  27 0
 3-21G
 ****
 35  36  37  38  39  40  41  42  43  44  45 0
 3-21G
 ****


