%nproc=1
%NoSave
%Mem=1900MB
#P OB98/GEN NMR

erre ene a

0 1
  C      328.523    -187.703     167.732
  O      329.827    -187.326     168.130
  H      328.565    -188.064     166.702
  H      327.855    -186.839     167.777
  H      328.145    -188.504     168.373
  P      330.022    -186.939     169.679
  C      329.696    -184.336     169.549
  O      329.161    -185.603     169.896
  C      328.590    -183.284     169.503
  O      328.116    -183.043     170.851
  C      329.037    -181.942     168.920
  O      327.962    -181.396     168.154
  C      329.288    -181.084     170.148
  O      329.188    -179.690     169.855
  C      328.233    -181.631     171.123
  N      328.589    -181.387     172.520
  C      328.176    -180.169     173.070
  O      327.565    -179.353     172.379
  N      328.504    -179.884     174.371
  C      329.239    -180.712     175.046
  N      329.546    -180.364     176.324
  C      329.742    -181.985     174.489
  C      329.376    -182.258     173.240
  O      331.537    -186.425     169.695
  O      329.732    -188.052     170.631
  H      328.304    -179.525     169.462
  H      331.769    -185.875     168.930
  H      330.365    -182.635     175.087
  H      329.693    -183.174     172.755
  H      327.256    -181.174     170.930
  H      330.294    -181.273     170.536
  H      329.931    -182.018     168.298
  H      327.743    -183.694     168.941
  H      329.197    -179.476     176.661
  H      330.193    -184.387     168.577
  H      330.153    -180.906     176.921
  H      330.444    -184.067     170.302
  P      328.073    -181.372     166.554
  C      329.588    -179.286     166.493
  O      329.449    -180.652     166.138
  O      326.864    -180.889     165.826
  O      328.373    -182.909     166.197
  H      327.884    -183.126     165.377
  H      330.540    -178.927     166.162
  H      329.518    -179.185     167.556
  H      328.811    -178.716     166.028

 6  7  8  9  10  11  12  13  14  15  16  26  30  31  32  33  35 0
 6-311+G(2d,p)
 ****
 37  38 0
 6-311+G(2d,p)
 ****
 1  2  3  4  5  17  18  19  20  21  22  23  24  25 0
 3-21G
 ****
 27  28  29  34  36  39  40  41  42  43  44  45  46 0
 3-21G
 ****


