%nproc=1
%NoSave
%Mem=1900MB
#P OB98/GEN NMR

erre ene a

0 1
  C      909.317     649.411     104.065
  O      910.305     649.737     103.109
  P      911.840     649.644     103.555
  C      912.345     650.573     101.159
  O      912.676     650.576     102.556
  C      912.866     651.836     100.493
  O      912.131     652.984     100.972
  C      914.327     652.154     100.751
  O      915.190     651.316      99.991
  C      914.384     653.626     100.382
  O      914.445     653.772      98.957
  C      913.027     654.132     100.888
  N      912.971     658.575     103.470
  C      912.892     658.298     102.149
  N      912.923     657.099     101.535
  C      913.072     656.121     102.455
  C      913.210     656.245     103.823
  C      913.131     657.544     104.329
  N      913.218     657.839     105.692
  N      913.343     655.022     104.431
  C      913.309     654.138     103.439
  N      913.138     654.761     102.214
  O      912.262     648.148     103.097
  O      912.103     649.869     105.023
  H      914.672     654.713      98.783
  H      912.907     647.754     103.724
  H      912.750     659.166     101.483
  H      913.388     653.067     103.530
  H      912.563     654.870     100.233
  H      915.250     654.148     100.801
  H      914.552     652.038     101.850
  H      912.679     651.757      99.408
  H      911.261     650.518     101.058
  H      913.324     658.792     105.957
  H      913.467     657.072     106.319
  H      912.772     649.680     100.711
  P      916.777     651.459     100.214
  C      917.068     650.449      97.873
  O      917.362     651.549      98.727
  O      917.191     649.977     100.669
  O      917.178     652.573     101.145
  H      916.813     649.301     100.084
  H      917.474     650.647      96.861
  H      915.978     650.316      97.776
  H      917.522     649.542      98.244
  H      908.347     649.518     103.626
  H      909.403     650.068     104.905
  H      909.453     648.400     104.387

 3  4  5  6  7  8  9  10  11  12  22  25  29  30  31  32 0
 6-311+G(2d,p)
 ****
 33  36  37 0
 6-311+G(2d,p)
 ****
 1  2  13  14  15  16  17  18  19  20  21  23  24  26 0
 3-21G
 ****
 27  28  34  35  38  39  40  41  42  43  44  45  46  47  48 0
 3-21G
 ****


