%nproc=1
%NoSave
%Mem=1900MB
#P OB98/GEN NMR

erre ene a

0 1
  C     -390.553    1122.538     139.200
  O     -389.447    1121.699     138.939
  H     -391.399    1121.915     139.509
  H     -390.836    1123.083     138.304
  H     -390.326    1123.242     140.009
  P     -388.031    1122.367     138.608
  C     -386.748    1122.040     140.820
  O     -387.444    1122.949     139.987
  C     -386.680    1122.573     142.264
  O     -385.606    1123.537     142.342
  C     -387.976    1123.263     142.721
  O     -388.190    1122.956     144.099
  C     -387.661    1124.735     142.565
  O     -388.424    1125.552     143.437
  C     -386.161    1124.777     142.850
  N     -384.508    1129.490     143.601
  C     -385.029    1128.573     144.496
  N     -385.157    1128.982     145.777
  N     -385.413    1127.366     144.160
  C     -385.211    1127.092     142.852
  C     -384.703    1127.908     141.869
  C     -384.305    1129.250     142.251
  O     -383.845    1130.107     141.501
  N     -384.670    1127.265     140.657
  C     -385.168    1126.070     140.907
  N     -385.516    1125.916     142.213
  O     -388.036    1123.336     137.474
  O     -387.070    1121.124     138.306
  H     -388.132    1125.365     144.347
  H     -386.894    1121.043     137.351
  H     -384.241    1130.402     143.916
  H     -385.291    1125.282     140.173
  H     -385.931    1124.838     143.920
  H     -387.865    1125.048     141.534
  H     -384.856    1129.892     146.113
  H     -388.840    1122.949     142.136
  H     -385.503    1128.328     146.452
  H     -386.421    1121.740     142.933
  H     -385.734    1121.919     140.430
  H     -387.251    1121.068     140.806
  P     -389.396    1121.966     144.505
  C     -387.889    1120.360     145.833
  O     -388.790    1120.496     144.744
  O     -390.583    1122.029     143.606
  O     -389.766    1122.444     145.988
  H     -390.723    1122.347     146.117
  H     -387.553    1119.346     145.894
  H     -388.386    1120.626     146.742
  H     -387.049    1121.005     145.683

 6  7  8  9  10  11  12  13  14  15  26  29  33  34 0
 6-311+G(2d,p)
 ****
 36  38  39  40  41 0
 6-311+G(2d,p)
 ****
 1  2  3  4  5  16  17  18  19  20  21  22  23  24  25 0
 3-21G
 ****
 27  28  30  31  32  35  37  42  43  44  45  46  47 0
 3-21G
 ****
 48  49 0
 3-21G
 ****


