%nproc=1
%NoSave
%Mem=1900MB
#P OB98/GEN NMR

erre ene a

0 1
  C      -69.630    -259.031      63.357
  O      -68.519    -258.617      62.581
  H      -69.460    -258.736      64.397
  H      -69.735    -260.119      63.313
  H      -70.542    -258.551      62.997
  P      -68.587    -258.938      61.009
  C      -66.621    -260.592      61.331
  O      -67.109    -259.444      60.649
  C      -66.312    -261.713      60.341
  O      -65.708    -262.831      61.014
  C      -67.536    -262.271      59.622
  O      -67.911    -261.439      58.537
  C      -66.995    -263.611      59.144
  O      -66.201    -263.418      57.956
  C      -66.090    -264.048      60.313
  N      -66.541    -268.956      61.752
  C      -65.985    -268.387      60.660
  N      -65.942    -267.079      60.322
  C      -66.550    -266.328      61.252
  C      -67.159    -266.763      62.418
  C      -67.133    -268.146      62.664
  N      -67.692    -268.722      63.787
  N      -67.680    -265.700      63.126
  C      -67.346    -264.636      62.427
  N      -66.689    -264.963      61.265
  O      -69.145    -257.857      60.151
  O      -69.423    -260.304      61.014
  H      -65.565    -262.704      58.140
  H      -69.164    -260.863      61.769
  H      -65.514    -269.073      59.963
  H      -67.534    -263.610      62.724
  H      -65.169    -264.524      59.958
  H      -67.792    -264.311      58.882
  H      -68.362    -262.449      60.318
  H      -65.576    -261.330      59.620
  H      -67.358    -260.937      62.070
  H      -67.779    -269.725      63.802
  H      -68.238    -268.134      64.399
  H      -65.711    -260.297      61.863
  P      -69.365    -260.758      58.496
  C      -69.992    -262.349      56.577
  O      -69.935    -260.998      57.014
  O      -69.415    -259.345      58.958
  O      -70.281    -261.712      59.396
  H      -70.916    -261.179      59.916
  H      -70.385    -262.386      55.583
  H      -70.626    -262.909      57.232
  H      -69.008    -262.769      56.587

 6  7  8  9  10  11  12  13  14  15  25  28  32  33  34  35 0
 6-311+G(2d,p)
 ****
 36  39  40 0
 6-311+G(2d,p)
 ****
 1  2  3  4  5  16  17  18  19  20  21  22  23  24 0
 3-21G
 ****
 26  27  29  30  31  37  38  41  42  43  44  45  46  47 0
 3-21G
 ****
 48 0
 3-21G
 ****


