%nproc=1
%NoSave
%Mem=1900MB
#P OB98/GEN NMR

erre ene a

0 1
  C     -121.789     218.045     628.771
  O     -120.488     217.491     628.720
  P     -120.289     216.004     629.282
  C     -118.867     216.904     631.284
  O     -119.981     216.129     630.859
  C     -119.260     217.756     632.495
  O     -120.406     218.585     632.172
  C     -119.680     216.940     633.705
  O     -118.555     216.435     634.399
  C     -120.485     217.959     634.503
  O     -119.616     218.792     635.292
  C     -121.160     218.782     633.385
  N     -122.564     218.437     633.215
  C     -123.480     219.448     633.505
  O     -123.139     220.567     633.902
  N     -124.802     219.123     633.360
  C     -125.297     217.894     633.012
  O     -126.495     217.653     632.946
  C     -124.282     216.858     632.736
  C     -122.987     217.170     632.858
  O     -118.880     215.543     628.663
  O     -121.384     215.053     628.945
  H     -119.036     219.271     634.661
  H     -118.908     214.590     628.454
  H     -125.485     219.844     633.536
  H     -124.643     215.878     632.466
  H     -122.229     216.418     632.684
  H     -121.090     219.849     633.615
  H     -121.186     217.482     635.198
  H     -120.349     216.123     633.396
  H     -118.425     218.421     632.745
  H     -118.535     217.554     630.465
  H     -118.040     216.236     631.541
  P     -118.426     214.846     634.517
  C     -119.515     214.904     636.896
  O     -119.552     214.403     635.573
  O     -117.037     214.702     635.309
  O     -118.461     214.150     633.183
  H     -116.889     215.444     635.916
  H     -119.155     215.942     636.923
  H     -118.869     214.277     637.504
  H     -120.530     214.883     637.313
  H     -121.771     219.035     628.365
  H     -122.121     218.082     629.787
  H     -122.458     217.437     628.199

 3  4  5  6  7  8  9  10  11  12  13  23  28  29  30  31  32 0
 6-311+G(2d,p)
 ****
 33  34 0
 6-311+G(2d,p)
 ****
 1  2  14  15  16  17  18  19  20  21  22  24  25  26 0
 3-21G
 ****
 27  35  36  37  38  39  40  41  42  43  44  45 0
 3-21G
 ****


