%nproc=1
%NoSave
%Mem=1900MB
#P OB98/GEN NMR

erre ene a

0 1
  C      -64.508      10.522     -53.455
  O      -65.637      11.293     -53.100
  H      -64.689      10.063     -54.429
  H      -64.357       9.731     -52.716
  H      -63.613      11.148     -53.520
  P      -65.461      12.313     -51.873
  C      -65.469      12.078     -49.288
  O      -65.398      11.417     -50.542
  C      -65.111      11.115     -48.161
  O      -63.921      10.369     -48.495
  C      -64.834      11.789     -46.822
  O      -66.036      12.059     -46.113
  C      -64.021      10.711     -46.126
  O      -64.901       9.669     -45.652
  C      -63.152      10.178     -47.273
  N      -58.294      10.214     -45.822
  C      -59.337       9.412     -45.403
  N      -59.046       8.494     -44.457
  N      -60.557       9.502     -45.864
  C      -60.707      10.481     -46.788
  C      -59.753      11.343     -47.279
  C      -58.406      11.221     -46.772
  O      -57.444      11.901     -47.118
  N      -60.279      12.202     -48.207
  C      -61.554      11.875     -48.262
  N      -61.866      10.838     -47.418
  O      -66.899      13.017     -51.790
  O      -64.373      13.319     -52.033
  H      -65.352      10.015     -44.860
  H      -66.838      13.904     -52.192
  H      -57.376      10.110     -45.426
  H      -62.289      12.349     -48.897
  H      -62.950       9.105     -47.178
  H      -63.478      11.086     -45.257
  H      -58.134       8.386     -44.043
  H      -64.222      12.692     -46.941
  H      -59.795       7.892     -44.138
  H      -65.932      10.392     -48.066
  H      -66.487      12.453     -49.139
  H      -64.772      12.923     -49.292
  P      -66.319      13.566     -45.644
  C      -64.934      15.391     -44.430
  O      -65.082      14.008     -44.719
  O      -67.520      13.389     -44.602
  O      -66.679      14.515     -46.734
  H      -68.339      13.777     -44.969
  H      -64.075      15.536     -43.809
  H      -65.806      15.744     -43.920
  H      -64.810      15.935     -45.343

 6  7  8  9  10  11  12  13  14  15  26  29  33  34 0
 6-311+G(2d,p)
 ****
 36  38  39  40  41 0
 6-311+G(2d,p)
 ****
 1  2  3  4  5  16  17  18  19  20  21  22  23  24  25 0
 3-21G
 ****
 27  28  30  31  32  35  37  42  43  44  45  46  47 0
 3-21G
 ****
 48  49 0
 3-21G
 ****


