%nproc=1
%NoSave
%Mem=1900MB
#P OB98/GEN NMR

erre ene a

0 1
  C     -281.423    -394.964     120.154
  O     -281.194    -395.781     121.285
  P     -281.346    -395.129     122.742
  C     -282.564    -397.232     123.748
  O     -281.458    -396.350     123.784
  C     -282.539    -398.165     124.956
  O     -281.453    -399.126     124.790
  C     -282.318    -397.463     126.302
  O     -283.086    -398.174     127.285
  C     -280.832    -397.644     126.542
  O     -280.481    -397.525     127.910
  C     -280.621    -399.053     125.966
  N     -279.227    -399.336     125.625
  C     -278.364    -399.682     126.659
  O     -278.697    -399.740     127.839
  N     -277.067    -399.938     126.289
  C     -276.547    -399.821     125.034
  O     -275.375    -400.043     124.762
  C     -277.498    -399.405     123.989
  C     -278.773    -399.200     124.325
  O     -282.830    -394.544     122.671
  O     -280.288    -394.128     123.069
  H     -283.433    -395.101     122.154
  H     -280.934    -398.235     128.404
  H     -276.429    -400.228     127.018
  H     -277.124    -399.285     122.978
  H     -279.492    -398.891     123.573
  H     -280.987    -399.808     126.670
  H     -280.271    -396.893     125.977
  H     -282.628    -396.411     126.280
  H     -283.474    -398.738     124.970
  H     -282.521    -397.830     122.829
  H     -283.490    -396.651     123.723
  P     -283.411    -397.432     128.676
  C     -285.751    -398.603     128.720
  O     -284.568    -398.273     129.400
  O     -284.198    -396.143     128.130
  O     -282.219    -397.079     129.499
  H     -284.889    -396.365     127.485
  H     -286.243    -399.433     129.240
  H     -285.551    -398.916     127.687
  H     -286.431    -397.750     128.712
  H     -281.283    -395.540     119.263
  H     -280.734    -394.145     120.160
  H     -282.424    -394.588     120.182

 3  4  5  6  7  8  9  10  11  12  13  24  28  29  30  31  32 0
 6-311+G(2d,p)
 ****
 33  34 0
 6-311+G(2d,p)
 ****
 1  2  14  15  16  17  18  19  20  21  22  23  25  26  27 0
 3-21G
 ****
 35  36  37  38  39  40  41  42  43  44  45 0
 3-21G
 ****


