%nproc=1
%NoSave
%Mem=1900MB
#P OB98/GEN NMR

erre ene a

0 1
  C      510.221     181.896     505.641
  O      509.727     181.311     504.458
  H      510.435     181.102     506.359
  H      509.463     182.560     506.065
  H      511.139     182.460     505.458
  P      509.763     182.164     503.103
  C      512.241     181.830     502.458
  O      510.884     181.531     502.142
  C      513.186     180.728     501.973
  O      513.069     179.573     502.832
  C      512.860     180.259     500.551
  O      513.477     181.018     499.524
  C      513.391     178.827     500.565
  O      514.778     178.777     500.195
  C      513.206     178.395     502.023
  N      510.789     174.106     500.646
  C      511.866     174.727     500.041
  N      512.321     174.149     498.906
  N      512.419     175.817     500.500
  C      511.787     176.336     501.578
  C      510.705     175.821     502.251
  C      510.146     174.568     501.783
  O      509.202     173.972     502.292
  N      510.313     176.642     503.281
  C      511.107     177.691     503.174
  N      512.067     177.512     502.207
  O      510.439     183.549     503.553
  O      508.431     182.413     502.461
  H      515.080     177.854     500.290
  H      510.085     184.276     503.011
  H      510.423     173.252     500.259
  H      511.060     178.578     503.797
  H      514.091     177.855     502.393
  H      512.850     178.206     499.844
  H      511.884     173.358     498.463
  H      511.780     180.223     500.397
  H      512.984     174.672     498.332
  H      514.222     181.083     502.051
  H      512.295     181.916     503.544
  H      512.525     182.794     502.034
  P      512.770     181.204     498.104
  C      511.818     183.618     498.507
  O      512.679     182.764     497.786
  O      511.254     180.800     498.400
  O      513.356     180.405     496.985
  H      511.080     179.877     498.124
  H      511.913     184.617     498.135
  H      512.081     183.597     499.544
  H      510.807     183.288     498.389

 6  7  8  9  10  11  12  13  14  15  26  29  33  34 0
 6-311+G(2d,p)
 ****
 36  38  39  40  41 0
 6-311+G(2d,p)
 ****
 1  2  3  4  5  16  17  18  19  20  21  22  23  24  25 0
 3-21G
 ****
 27  28  30  31  32  35  37  42  43  44  45  46  47 0
 3-21G
 ****
 48  49 0
 3-21G
 ****


