%nproc=1
%NoSave
%Mem=1900MB
#P OB98/GEN NMR

erre ene a

0 1
  C     -332.478     506.268     791.360
  O     -331.212     506.804     791.681
  P     -330.106     507.029     790.544
  C     -327.809     508.195     790.503
  O     -329.108     508.153     791.097
  C     -327.170     509.563     790.736
  O     -328.017     510.628     790.210
  C     -326.976     509.925     792.201
  O     -326.053     509.155     792.942
  C     -326.718     511.417     792.108
  O     -325.356     511.690     791.758
  C     -327.668     511.827     790.953
  N     -328.860     512.524     791.444
  C     -328.647     513.810     791.933
  O     -327.545     514.364     791.953
  N     -329.757     514.448     792.419
  C     -331.016     513.924     792.512
  O     -331.953     514.534     793.001
  C     -331.168     512.553     792.002
  C     -330.102     511.924     791.498
  O     -330.649     507.294     789.177
  O     -329.212     505.704     790.637
  H     -324.800     511.396     792.509
  H     -328.783     505.567     791.504
  H     -329.623     515.386     792.790
  H     -332.155     512.111     792.051
  H     -330.189     510.913     791.115
  H     -327.147     512.491     790.254
  H     -326.914     511.929     793.059
  H     -327.938     509.801     792.711
  H     -326.229     509.597     790.180
  H     -327.911     508.026     789.421
  H     -327.191     507.395     790.920
  P     -326.187     508.884     794.514
  C     -325.501     507.018     796.179
  O     -325.614     507.420     794.830
  O     -327.486     509.277     795.152
  O     -325.014     509.820     795.095
  H     -325.286     510.138     795.979
  H     -325.063     506.011     796.202
  H     -326.496     506.969     796.654
  H     -324.850     507.705     796.730
  H     -333.070     506.195     792.248
  H     -332.355     505.295     790.933
  H     -332.968     506.908     790.656

 3  4  5  6  7  8  9  10  11  12  13  23  28  29  30  31  32 0
 6-311+G(2d,p)
 ****
 33  34 0
 6-311+G(2d,p)
 ****
 1  2  14  15  16  17  18  19  20  21  22  24  25  26  27 0
 3-21G
 ****
 35  36  37  38  39  40  41  42  43  44  45 0
 3-21G
 ****


