%nproc=1
%NoSave
%Mem=1900MB
#P OB98/GEN NMR

erre ene a

0 1
  C     -875.206     447.399    -475.406
  O     -874.124     447.974    -476.118
  H     -874.834     447.027    -474.449
  H     -875.635     446.562    -475.968
  H     -875.982     448.146    -475.208
  P     -874.400     448.594    -477.565
  C     -871.995     447.748    -478.046
  O     -873.338     447.865    -478.520
  C     -871.085     447.195    -479.136
  O     -871.283     445.783    -479.327
  C     -871.321     447.809    -480.526
  O     -870.818     449.151    -480.651
  C     -870.537     446.821    -481.375
  O     -869.126     447.079    -481.226
  C     -870.949     445.486    -480.718
  N     -872.074     444.843    -481.401
  C     -871.761     444.054    -482.517
  O     -870.605     443.921    -482.892
  N     -872.797     443.432    -483.200
  C     -874.029     443.626    -482.814
  N     -874.995     443.008    -483.533
  C     -874.402     444.469    -481.661
  C     -873.381     445.038    -481.011
  O     -874.425     450.091    -477.647
  O     -875.768     447.905    -478.043
  H     -868.661     446.376    -481.732
  H     -876.004     448.257    -478.941
  H     -875.439     444.618    -481.397
  H     -873.573     445.685    -480.148
  H     -870.090     444.780    -480.699
  H     -870.772     446.892    -482.436
  H     -872.381     447.763    -480.808
  H     -870.046     447.346    -478.801
  H     -874.725     442.437    -484.317
  H     -872.001     447.079    -477.174
  H     -875.991     443.174    -483.365
  H     -871.612     448.725    -477.721
  P     -871.878     450.255    -481.173
  C     -870.047     452.084    -481.525
  O     -871.033     451.259    -482.093
  O     -872.168     451.098    -479.846
  O     -873.128     449.689    -481.808
  H     -873.022     450.800    -479.443
  H     -869.595     452.679    -482.291
  H     -869.300     451.477    -481.057
  H     -870.495     452.724    -480.794

 6  7  8  9  10  11  12  13  14  15  16  26  30  31  32  33  35 0
 6-311+G(2d,p)
 ****
 37  38 0
 6-311+G(2d,p)
 ****
 1  2  3  4  5  17  18  19  20  21  22  23  24  25 0
 3-21G
 ****
 27  28  29  34  36  39  40  41  42  43  44  45  46 0
 3-21G
 ****


