%nproc=1
%NoSave
%Mem=1900MB
#P OB98/GEN NMR

erre ene a

0 1
  C     -131.474     474.814    -266.862
  O     -130.333     474.253    -266.243
  H     -132.186     475.111    -266.084
  H     -131.950     474.069    -267.503
  H     -131.199     475.693    -267.445
  P     -129.085     473.913    -267.196
  C     -129.982     471.492    -267.681
  O     -129.607     472.757    -268.185
  C     -130.095     470.465    -268.820
  O     -128.809     470.390    -269.496
  C     -130.454     469.052    -268.341
  O     -131.291     468.447    -269.330
  C     -129.113     468.345    -268.306
  O     -129.256     466.930    -268.400
  C     -128.386     469.013    -269.486
  N     -126.934     468.895    -269.383
  C     -126.291     468.129    -270.367
  O     -126.954     467.588    -271.260
  N     -124.934     467.966    -270.296
  C     -124.272     468.466    -269.301
  N     -122.933     468.249    -269.277
  C     -124.914     469.234    -268.218
  C     -126.230     469.425    -268.324
  O     -128.105     473.146    -266.196
  O     -128.482     475.104    -267.865
  H     -128.368     466.536    -268.577
  H     -128.556     472.493    -265.635
  H     -124.319     469.626    -267.398
  H     -126.775     469.981    -267.583
  H     -128.704     468.562    -270.440
  H     -128.592     468.567    -267.366
  H     -130.964     469.053    -267.366
  H     -130.818     470.837    -269.543
  H     -122.536     467.694    -270.032
  H     -130.943     471.562    -267.156
  H     -122.327     468.537    -268.524
  H     -129.231     471.173    -266.953
  P     -132.880     468.512    -269.175
  C     -132.887     466.950    -267.116
  O     -133.271     468.215    -267.646
  O     -133.670     467.768    -270.193
  O     -133.173     470.098    -269.293
  H     -133.982     470.213    -269.831
  H     -133.205     466.879    -266.097
  H     -131.823     466.851    -267.166
  H     -133.345     466.170    -267.687

 6  7  8  9  10  11  12  13  14  15  16  26  30  31  32  33  35 0
 6-311+G(2d,p)
 ****
 37  38 0
 6-311+G(2d,p)
 ****
 1  2  3  4  5  17  18  19  20  21  22  23  24  25 0
 3-21G
 ****
 27  28  29  34  36  39  40  41  42  43  44  45  46 0
 3-21G
 ****


