%nproc=1
%NoSave
%Mem=1900MB
#P OB98/GEN NMR

erre ene a

0 1
  C     -532.253    1197.857    -164.601
  O     -531.480    1198.336    -165.685
  H     -531.888    1198.278    -163.658
  H     -533.288    1198.167    -164.746
  H     -532.209    1196.761    -164.561
  P     -529.900    1198.072    -165.600
  C     -529.356    1199.624    -167.607
  O     -529.323    1198.308    -167.082
  C     -529.062    1199.613    -169.099
  O     -527.705    1199.169    -169.345
  C     -529.935    1198.667    -169.918
  O     -531.221    1199.215    -170.173
  C     -529.112    1198.546    -171.189
  O     -529.345    1199.692    -172.040
  C     -527.676    1198.565    -170.663
  N     -525.303    1194.788    -173.209
  C     -525.789    1195.991    -173.619
  N     -526.420    1196.932    -172.896
  C     -526.508    1196.559    -171.608
  C     -526.058    1195.376    -171.041
  C     -525.440    1194.459    -171.904
  N     -524.953    1193.237    -171.486
  N     -526.315    1195.345    -169.684
  C     -526.907    1196.495    -169.430
  N     -527.057    1197.258    -170.560
  O     -529.790    1196.488    -165.408
  O     -529.185    1198.809    -164.513
  H     -530.322    1199.786    -172.113
  H     -529.037    1196.287    -164.819
  H     -525.652    1196.205    -174.683
  H     -527.251    1196.815    -168.455
  H     -527.024    1199.202    -171.282
  H     -529.355    1197.651    -171.782
  H     -530.008    1197.670    -169.431
  H     -529.154    1200.640    -169.477
  H     -528.606    1200.242    -167.101
  H     -524.351    1192.719    -172.100
  H     -525.055    1193.000    -170.499
  H     -530.343    1200.054    -167.418
  P     -532.423    1198.779    -169.196
  C     -534.586    1198.454    -170.603
  O     -533.757    1199.362    -169.875
  O     -532.213    1199.722    -167.924
  O     -532.447    1197.337    -168.822
  H     -532.603    1199.308    -167.131
  H     -535.431    1198.979    -170.996
  H     -534.922    1197.676    -169.950
  H     -534.026    1198.027    -171.408

 6  7  8  9  10  11  12  13  14  15  25  28  32  33  34  35 0
 6-311+G(2d,p)
 ****
 36  39  40 0
 6-311+G(2d,p)
 ****
 1  2  3  4  5  16  17  18  19  20  21  22  23  24 0
 3-21G
 ****
 26  27  29  30  31  37  38  41  42  43  44  45  46  47  48 0
 3-21G
 ****


