%nproc=1
%NoSave
%Mem=1900MB
#P OB98/GEN NMR

erre ene a

0 1
  C      715.903    -199.591     -89.772
  O      715.670    -200.841     -90.373
  P      714.185    -201.298     -90.759
  C      711.838    -200.715     -89.853
  O      713.236    -200.784     -89.570
  C      711.029    -200.958     -88.576
  O      711.400    -200.011     -87.542
  C      709.525    -200.753     -88.755
  O      708.843    -201.659     -89.591
  C      709.081    -200.661     -87.305
  O      708.935    -201.971     -86.731
  C      710.265    -199.912     -86.648
  N      709.923    -198.512     -86.359
  C      709.548    -198.237     -85.052
  O      709.515    -199.069     -84.161
  N      709.202    -196.930     -84.797
  C      709.142    -195.923     -85.716
  O      708.774    -194.783     -85.427
  C      709.510    -196.284     -87.092
  C      709.879    -197.549     -87.365
  O      714.022    -202.735     -91.093
  O      713.786    -200.302     -91.955
  H      708.376    -201.885     -85.936
  H      713.806    -199.353     -91.723
  H      708.927    -196.704     -83.851
  H      709.483    -195.508     -87.850
  H      710.166    -197.842     -88.365
  H      710.547    -200.386     -85.710
  H      708.096    -200.169     -87.214
  H      709.370    -199.764     -89.201
  H      711.263    -201.977     -88.204
  H      711.589    -201.506     -90.595
  H      711.604    -199.752     -90.307
  P      707.322    -201.436     -90.063
  C      705.008    -201.161     -88.919
  O      706.406    -201.360     -88.755
  O      706.836    -202.304     -91.191
  O      707.349    -199.915     -90.545
  H      706.699    -199.799     -91.261
  H      704.537    -201.080     -87.925
  H      704.562    -202.008     -89.441
  H      704.818    -200.231     -89.468
  H      716.951    -199.471     -89.593
  H      715.374    -199.537     -88.844
  H      715.561    -198.813     -90.423

 3  4  5  6  7  8  9  10  11  12  13  23  28  29  30  31  32 0
 6-311+G(2d,p)
 ****
 33  34 0
 6-311+G(2d,p)
 ****
 1  2  14  15  16  17  18  19  20  21  22  24  25  26  27 0
 3-21G
 ****
 35  36  37  38  39  40  41  42  43  44  45 0
 3-21G
 ****


