%nproc=1
%NoSave
%Mem=1900MB
#P OB98/GEN NMR

erre ene a

0 1
  C     -409.011    -860.624    -232.977
  O     -408.060    -861.185    -232.089
  H     -409.083    -859.553    -232.778
  H     -409.995    -861.079    -232.825
  H     -408.686    -860.772    -234.011
  P     -407.833    -862.772    -232.194
  C     -409.786    -863.062    -230.537
  O     -408.423    -863.349    -230.815
  C     -410.184    -863.609    -229.165
  O     -409.947    -865.039    -229.156
  C     -409.388    -863.001    -228.011
  O     -410.248    -862.825    -226.890
  C     -408.346    -864.063    -227.697
  O     -407.885    -863.989    -226.348
  C     -409.101    -865.346    -228.037
  N     -405.761    -868.674    -226.083
  C     -406.617    -867.812    -225.501
  N     -407.490    -866.966    -226.100
  C     -407.451    -867.117    -227.440
  C     -406.629    -867.954    -228.172
  C     -405.744    -868.756    -227.437
  N     -404.847    -869.623    -228.019
  N     -406.856    -867.784    -229.526
  C     -407.804    -866.871    -229.606
  N     -408.185    -866.426    -228.370
  O     -406.446    -863.206    -232.525
  O     -408.959    -863.195    -233.253
  H     -407.366    -863.169    -226.243
  H     -409.810    -862.750    -233.068
  H     -406.602    -867.782    -224.415
  H     -408.239    -866.494    -230.527
  H     -409.731    -865.699    -227.207
  H     -407.478    -863.934    -228.361
  H     -408.929    -862.049    -228.280
  H     -411.261    -863.468    -229.025
  H     -410.433    -863.503    -231.310
  H     -404.258    -870.177    -227.419
  H     -404.833    -869.718    -229.030
  H     -409.916    -861.975    -230.560
  P     -411.209    -861.540    -226.852
  C     -409.681    -860.234    -225.227
  O     -410.982    -860.774    -225.460
  O     -412.631    -861.782    -227.234
  O     -410.501    -860.556    -227.900
  H     -411.188    -860.075    -228.396
  H     -409.661    -859.752    -224.272
  H     -409.449    -859.521    -225.991
  H     -408.959    -861.023    -225.244

 6  7  8  9  10  11  12  13  14  15  25  28  32  33  34  35 0
 6-311+G(2d,p)
 ****
 36  39  40 0
 6-311+G(2d,p)
 ****
 1  2  3  4  5  16  17  18  19  20  21  22  23  24 0
 3-21G
 ****
 26  27  29  30  31  37  38  41  42  43  44  45  46  47 0
 3-21G
 ****
 48 0
 3-21G
 ****


