%nproc=1
%NoSave
%Mem=1900MB
#P OB98/GEN NMR

erre ene a

0 1
  C       48.277    -151.601     473.609
  O       49.390    -151.551     472.737
  P       49.374    -152.379     471.369
  C       50.852    -151.214     469.618
  O       49.541    -151.338     470.160
  C       50.868    -150.178     468.494
  O       50.619    -148.857     469.024
  C       52.196    -150.080     467.758
  O       52.363    -151.161     466.862
  C       52.067    -148.715     467.096
  O       51.296    -148.809     465.886
  C       51.298    -147.918     468.163
  N       52.969    -143.133     468.746
  C       52.240    -143.717     467.775
  N       51.864    -145.013     467.670
  C       52.347    -145.726     468.697
  C       53.137    -145.274     469.748
  C       53.432    -143.901     469.763
  N       54.122    -143.280     470.785
  N       53.459    -146.320     470.592
  C       52.886    -147.377     470.064
  N       52.154    -147.059     468.954
  O       48.240    -153.342     471.220
  O       50.777    -153.151     471.373
  H       51.893    -149.131     465.187
  H       50.616    -154.115     471.354
  H       51.900    -143.063     466.976
  H       52.960    -148.388     470.446
  H       50.522    -147.284     467.713
  H       53.037    -148.282     466.830
  H       53.023    -150.051     468.481
  H       50.053    -150.420     467.798
  H       51.156    -152.191     469.225
  H       54.149    -142.268     470.764
  H       54.202    -143.761     471.675
  H       51.547    -150.921     470.412
  P       53.719    -152.011     466.872
  C       52.561    -154.203     467.520
  O       53.504    -153.221     467.900
  O       54.970    -151.221     467.072
  O       53.711    -152.744     465.451
  H       54.630    -152.855     465.141
  H       51.545    -153.831     467.702
  H       52.719    -155.101     468.121
  H       52.665    -154.465     466.460
  H       48.468    -150.989     474.466
  H       48.114    -152.611     473.921
  H       47.408    -151.240     473.099

 3  4  5  6  7  8  9  10  11  12  22  25  29  30  31  32 0
 6-311+G(2d,p)
 ****
 33  36  37 0
 6-311+G(2d,p)
 ****
 1  2  13  14  15  16  17  18  19  20  21  23  24  26 0
 3-21G
 ****
 27  28  34  35  38  39  40  41  42  43  44  45  46  47  48 0
 3-21G
 ****


