%nproc=1
%NoSave
%Mem=1900MB
#P OB98/GEN NMR

erre ene a

0 1
  C      349.670     -69.908     118.080
  O      349.342     -70.881     119.052
  H      350.603     -69.422     118.371
  H      348.881     -69.152     118.022
  H      349.805     -70.378     117.102
  P      348.003     -71.730     118.798
  C      346.492     -70.075     120.119
  O      346.786     -70.689     118.868
  C      345.549     -68.896     119.906
  O      346.154     -67.944     118.997
  C      344.221     -69.278     119.266
  O      343.317     -69.849     120.194
  C      343.761     -67.934     118.718
  O      343.115     -67.151     119.732
  C      345.079     -67.277     118.296
  N      347.398     -65.069     114.320
  C      347.441     -64.813     115.645
  N      346.803     -65.458     116.643
  C      346.078     -66.481     116.159
  C      345.941     -66.865     114.836
  C      346.647     -66.108     113.886
  N      346.585     -66.352     112.536
  N      345.081     -67.938     114.730
  C      344.712     -68.206     115.966
  N      345.292     -67.355     116.864
  O      347.855     -72.583     120.145
  O      348.028     -72.602     117.586
  H      343.313     -66.215     119.521
  H      348.183     -73.489     119.992
  H      348.063     -63.971     115.943
  H      344.030     -68.994     116.257
  H      345.121     -66.215     118.574
  H      343.052     -68.067     117.903
  H      344.389     -69.960     118.424
  H      345.390     -68.394     120.867
  H      347.423     -69.716     120.573
  H      346.038     -70.819     120.780
  H      347.063     -65.729     111.906
  H      345.938     -67.052     112.192
  P      342.211     -70.862     119.630
  C      340.500     -68.897     119.492
  O      341.128     -69.989     118.833
  O      341.425     -71.337     120.942
  O      342.760     -72.018     118.863
  H      341.157     -72.272     120.847
  H      339.811     -68.426     118.823
  H      341.243     -68.189     119.796
  H      339.974     -69.254     120.353

 6  7  8  9  10  11  12  13  14  15  25  28  32  33  34  35 0
 6-311+G(2d,p)
 ****
 36  37  40 0
 6-311+G(2d,p)
 ****
 1  2  3  4  5  16  17  18  19  20  21  22  23  24 0
 3-21G
 ****
 26  27  29  30  31  38  39 41  42  43  44  45  46  47  48 0
 3-21G
 ****


