%nproc=1
%NoSave
%Mem=1900MB
#P OB98/GEN NMR

erre ene a

0 1
  C     -148.122     397.609    -181.811
  O     -148.569     396.402    -182.405
  H     -148.248     397.538    -180.727
  H     -148.717     398.447    -182.180
  H     -147.064     397.777    -182.034
  P     -148.251     396.215    -183.964
  C     -146.052     394.792    -183.824
  O     -146.656     396.044    -184.113
  C     -146.095     393.895    -185.062
  O     -145.227     394.399    -186.095
  C     -145.590     392.481    -184.829
  O     -146.492     391.698    -184.074
  C     -145.419     392.002    -186.262
  O     -146.649     391.506    -186.807
  C     -144.974     393.291    -186.991
  N     -143.585     393.222    -187.411
  C     -143.383     392.968    -188.779
  O     -144.351     392.842    -189.531
  N     -142.101     392.834    -189.238
  C     -141.106     392.910    -188.412
  N     -139.860     392.733    -188.928
  C     -141.270     393.177    -186.963
  C     -142.528     393.320    -186.538
  O     -148.518     397.682    -184.549
  O     -149.035     395.137    -184.639
  H     -146.467     391.280    -187.744
  H     -148.083     398.389    -184.043
  H     -140.409     393.246    -186.320
  H     -142.745     393.515    -185.490
  H     -145.594     393.464    -187.884
  H     -144.692     391.182    -186.331
  H     -144.598     392.507    -184.356
  H     -147.127     393.889    -185.446
  H     -139.788     392.495    -189.913
  H     -146.555     394.302    -182.984
  H     -139.020     392.693    -188.367
  H     -145.017     394.979    -183.527
  P     -145.985     390.477    -183.172
  C     -145.680     391.672    -180.907
  O     -145.028     391.107    -182.039
  O     -145.383     389.334    -183.924
  O     -147.290     390.082    -182.327
  H     -147.646     390.797    -181.769
  H     -144.947     392.056    -180.228
  H     -146.260     390.919    -180.417
  H     -146.322     392.466    -181.225

 6  7  8  9  10  11  12  13  14  15  16  26  30  31  32  33  35 0
 6-311+G(2d,p)
 ****
 37  38 0
 6-311+G(2d,p)
 ****
 1  2  3  4  5  17  18  19  20  21  22  23  24  25 0
 3-21G
 ****
 27  28  29  34  36  39  40  41  42  43  44  45  46 0
 3-21G
 ****


