%nproc=1
%NoSave
%Mem=1900MB
#P OB98/GEN NMR

erre ene a

0 1
  C     -345.878     326.890    -321.021
  O     -344.586     327.393    -321.389
  P     -344.180     327.751    -322.902
  C     -342.041     326.331    -323.132
  O     -342.586     327.640    -323.064
  C     -340.566     326.305    -322.709
  O     -339.724     326.772    -323.810
  C     -340.242     327.179    -321.481
  O     -339.274     326.455    -320.712
  C     -339.631     328.415    -322.125
  O     -338.868     329.204    -321.232
  C     -338.819     327.752    -323.245
  N     -338.330     328.655    -324.284
  C     -337.086     329.269    -324.073
  O     -336.457     329.102    -323.033
  N     -336.588     330.088    -325.060
  C     -337.265     330.287    -326.143
  N     -336.707     331.098    -327.083
  C     -338.580     329.679    -326.398
  C     -339.045     328.883    -325.438
  O     -344.736     329.056    -323.377
  O     -344.743     326.545    -323.793
  H     -345.046     326.896    -324.649
  H     -338.144     328.648    -320.886
  H     -339.109     329.864    -327.320
  H     -339.998     328.369    -325.556
  H     -337.980     327.200    -322.811
  H     -340.440     329.041    -322.519
  H     -341.110     327.389    -320.851
  H     -340.287     325.265    -322.522
  H     -335.793     331.492    -326.879
  H     -342.116     325.973    -324.164
  H     -337.140     331.317    -327.964
  H     -342.631     325.664    -322.496
  P     -339.769     325.378    -319.630
  C     -339.358     327.041    -317.666
  O     -339.108     325.767    -318.224
  O     -338.918     324.081    -320.042
  O     -341.227     325.056    -319.631
  H     -339.392     323.280    -319.750
  H     -339.573     326.929    -316.605
  H     -340.205     327.542    -318.140
  H     -338.463     327.666    -317.783
  H     -345.910     326.728    -319.964
  H     -346.059     325.966    -321.529
  H     -346.629     327.601    -321.295

 3  4  5  6  7  8  9  10  11  12  13  24  27  28  29  30  32 0
 6-311+G(2d,p)
 ****
 34  35 0
 6-311+G(2d,p)
 ****
 1  2  14  15  16  17  18  19  20  21  22  23  25  26 0
 3-21G
 ****
 31  33  36  37  38  39  40  41  42  43  44  45  46 0
 3-21G
 ****


