%nproc=1
%NoSave
%Mem=1900MB
#P OB98/GEN NMR

erre ene a

0 1
  C     1073.085     687.638    1639.392
  O     1072.840     686.707    1640.445
  P     1073.934     685.548    1640.682
  C     1074.082     684.608    1638.245
  O     1073.632     684.407    1639.600
  C     1074.367     683.253    1637.607
  O     1075.595     682.700    1638.135
  C     1073.303     682.178    1637.842
  O     1072.197     682.317    1636.958
  C     1074.078     680.923    1637.522
  O     1074.160     680.722    1636.099
  C     1075.474     681.226    1638.085
  N     1076.315     677.006    1640.735
  C     1076.328     677.219    1639.355
  N     1076.583     676.142    1638.577
  N     1076.169     678.373    1638.793
  C     1075.936     679.389    1639.710
  C     1075.887     679.306    1641.080
  C     1076.070     677.995    1641.669
  O     1075.991     677.741    1642.879
  N     1075.655     680.515    1641.646
  C     1075.550     681.351    1640.634
  N     1075.688     680.702    1639.414
  O     1073.479     684.879    1642.074
  O     1075.340     686.038    1640.745
  H     1074.559     679.840    1635.956
  H     1074.187     684.378    1642.451
  H     1076.436     676.079    1641.110
  H     1075.369     682.400    1640.693
  H     1076.281     680.870    1637.441
  H     1073.623     680.005    1637.941
  H     1076.664     675.206    1638.956
  H     1072.998     682.154    1638.895
  H     1076.544     676.229    1637.581
  H     1074.492     683.415    1636.520
  H     1074.972     685.222    1638.259
  H     1073.297     685.136    1637.704
  P     1070.774     682.640    1637.635
  C     1070.473     680.250    1638.636
  O     1070.019     681.231    1637.728
  O     1069.985     683.434    1636.460
  O     1070.848     683.444    1638.900
  H     1069.307     684.025    1636.852
  H     1069.708     679.496    1638.757
  H     1070.674     680.705    1639.631
  H     1071.397     679.790    1638.253
  H     1072.284     688.346    1639.349
  H     1073.149     687.115    1638.461
  H     1074.006     688.151    1639.577

 3  4  5  6  7  8  9  10  11  12  23  26  30  31 0
 6-311+G(2d,p)
 ****
 33  35  36  37  38 0
 6-311+G(2d,p)
 ****
 1  2  13  14  15  16  17  18  19  20  21  22  24  25 0
 3-21G
 ****
 27  28  29  32  34  39  40  41  42  43  44  45  46  47  48  49 0
 3-21G
 ****


