%nproc=1
%NoSave
%Mem=1900MB
#P OB98/GEN NMR

erre ene a

0 1
  C     -380.513    1018.933    -898.320
  O     -379.124    1018.949    -898.020
  P     -378.302    1017.581    -897.940
  C     -378.585    1015.441    -896.510
  O     -378.829    1016.830    -896.610
  C     -379.055    1014.889    -895.160
  O     -380.493    1014.958    -895.040
  C     -378.691    1013.422    -894.910
  O     -377.317    1013.309    -894.550
  C     -379.663    1013.074    -893.790
  O     -379.172    1013.478    -892.510
  C     -380.919    1013.872    -894.190
  N     -381.949    1013.053    -894.820
  C     -383.095    1012.802    -894.040
  O     -383.173    1013.240    -892.890
  N     -384.095    1012.003    -894.590
  C     -383.938    1011.509    -895.770
  N     -384.962    1010.747    -896.250
  C     -382.742    1011.726    -896.600
  C     -381.796    1012.482    -896.070
  O     -376.826    1017.703    -898.040
  O     -378.940    1016.687    -899.120
  H     -378.268    1013.122    -892.440
  H     -378.634    1016.986    -900.000
  H     -382.664    1011.269    -897.570
  H     -380.871    1012.695    -896.620
  H     -381.347    1014.347    -893.300
  H     -379.851    1011.993    -893.740
  H     -378.903    1012.851    -895.820
  H     -378.604    1015.528    -894.360
  H     -385.744    1010.610    -895.630
  H     -377.510    1015.259    -896.630
  H     -384.937    1010.268    -897.140
  H     -379.124    1014.920    -897.330
  P     -376.738    1011.902    -894.100
  C     -377.633    1010.070    -892.520
  O     -377.514    1011.463    -892.750
  O     -375.237    1011.795    -894.030
  O     -377.311    1010.862    -895.200
  H     -376.598    1010.253    -895.470
  H     -377.845    1009.906    -891.460
  H     -376.712    1009.551    -892.760
  H     -378.440    1009.659    -893.120
  H     -380.887    1019.935    -898.330
  H     -381.032    1018.365    -897.576
  H     -380.665    1018.486    -899.280

 3  4  5  6  7  8  9  10  11  12  13  23  27  28  29  30  32 0
 6-311+G(2d,p)
 ****
 34  35 0
 6-311+G(2d,p)
 ****
 1  2  14  15  16  17  18  19  20  21  22  24  25  26 0
 3-21G
 ****
 31  33  36  37  38  39  40  41  42  43  44  45  46 0
 3-21G
 ****


