%nproc=1
%NoSave
%Mem=1900MB
#P OB98/GEN NMR

erre ene a

0 1
  C      167.127    -869.070      81.133
  O      167.495    -868.363      82.301
  H      167.840    -869.884      80.981
  H      167.156    -868.405      80.263
  H      166.122    -869.492      81.252
  P      166.586    -867.098      82.692
  C      168.517    -866.565      84.343
  O      167.617    -866.063      83.365
  C      169.766    -865.691      84.417
  O      170.630    -865.959      83.299
  C      169.482    -864.197      84.403
  O      169.162    -863.740      85.700
  C      170.837    -863.659      83.950
  O      171.742    -863.601      85.075
  C      171.318    -864.728      82.947
  N      173.386    -863.265      78.477
  C      173.889    -863.291      79.732
  N      173.272    -863.642      80.891
  C      171.990    -863.997      80.639
  C      171.342    -864.010      79.417
  C      172.098    -863.631      78.304
  N      171.587    -863.598      77.017
  N      170.037    -864.443      79.563
  C      169.915    -864.722      80.848
  N      171.069    -864.435      81.553
  O      165.354    -867.402      83.479
  O      166.329    -866.446      81.250
  H      171.998    -864.531      85.270
  H      167.142    -866.485      80.710
  H      174.928    -862.987      79.838
  H      169.040    -865.156      81.307
  H      172.385    -864.918      83.048
  H      170.773    -862.655      83.534
  H      168.721    -863.927      83.659
  H      170.320    -865.978      85.334
  H      168.793    -867.594      84.100
  H      172.122    -863.138      76.313
  H      170.589    -863.756      76.910
  H      167.987    -866.572      85.304
  P      167.846    -862.853      85.966
  C      168.423    -862.712      88.469
  O      168.182    -861.986      87.277
  O      166.569    -863.634      86.013
  O      167.864    -861.762      84.796
  H      166.988    -861.352      84.706
  H      168.634    -862.030      89.266
  H      169.260    -863.364      88.327
  H      167.558    -863.291      88.715

 6  7  8  9  10  11  12  13  14  15  25  28  32  33  34  35 0
 6-311+G(2d,p)
 ****
 36  39  40 0
 6-311+G(2d,p)
 ****
 1  2  3  4  5  16  17  18  19  20  21  22  23  24 0
 3-21G
 ****
 26  27  29  30  31  37  38  41  42  43  44  45  46  47 0
 3-21G
 ****
 48 0
 3-21G
 ****


