%nproc=1
%NoSave
%Mem=1900MB
#P OB98/GEN NMR

erre ene a

0 1
  C     -250.904     109.233      80.431
  O     -250.462     110.570      80.299
  H     -250.231     108.707      81.111
  H     -250.878     108.732      79.460
  H     -251.917     109.195      80.842
  P     -251.389     111.616      79.516
  C     -252.077     112.026      77.063
  O     -251.354     111.202      77.965
  C     -252.057     111.411      75.662
  O     -252.784     110.163      75.657
  C     -252.710     112.275      74.592
  O     -251.865     113.349      74.221
  C     -252.955     111.244      73.503
  O     -251.750     110.995      72.755
  C     -253.349     110.002      74.338
  N     -254.795     109.792      74.408
  C     -255.416     109.354      73.245
  O     -254.813     109.176      72.188
  N     -256.772     109.134      73.335
  C     -257.550     109.389      74.424
  O     -258.769     109.230      74.435
  C     -256.847     109.891      75.617
  C     -255.521     110.062      75.555
  O     -251.114     113.060      79.783
  O     -252.876     111.211      79.962
  H     -252.017     110.503      71.954
  H     -253.190     111.822      80.654
  H     -257.236     108.827      72.499
  H     -257.436     110.105      76.500
  H     -254.983     110.432      76.423
  H     -252.894     109.096      73.913
  H     -253.713     111.556      72.786
  H     -253.684     112.647      74.946
  H     -251.013     111.190      75.405
  H     -251.602     113.016      77.033
  H     -253.107     112.131      77.425
  P     -252.464     114.812      73.969
  C     -253.946     115.968      72.226
  O     -253.418     114.726      72.677
  O     -251.457     115.914      73.926
  O     -253.500     115.024      75.172
  H     -253.128     115.647      75.821
  H     -254.563     115.803      71.368
  H     -253.142     116.624      71.966
  H     -254.530     116.411      73.005

 6  7  8  9  10  11  12  13  14  15  16  26  31  32  33  34  35 0
 6-311+G(2d,p)
 ****
 36  37 0
 6-311+G(2d,p)
 ****
 1  2  3  4  5  17  18  19  20  21  22  23  24  25 0
 3-21G
 ****
 27  28  29  30  38  39  40  41  42  43  44  45 0
 3-21G
 ****


