%nproc=1
%NoSave
%Mem=1900MB
#P OB98/GEN NMR

erre ene a

0 1
  C      397.490     425.598    -282.024
  O      397.194     426.663    -281.117
  P      396.538     427.977    -281.771
  C      395.133     428.468    -279.648
  O      396.099     428.952    -280.572
  C      394.730     429.567    -278.661
  O      395.635     429.596    -277.518
  C      394.725     430.983    -279.272
  O      393.641     431.700    -278.647
  C      396.067     431.528    -278.816
  O      396.177     432.938    -278.926
  C      396.115     430.956    -277.403
  N      399.726     434.017    -275.476
  C      398.516     434.282    -276.023
  N      397.612     433.401    -276.515
  C      398.066     432.136    -276.410
  C      399.278     431.718    -275.884
  C      400.143     432.723    -275.401
  N      401.382     432.470    -274.876
  N      399.392     430.336    -275.971
  C      398.295     429.955    -276.602
  N      397.428     430.993    -276.808
  O      395.151     427.449    -282.367
  O      397.401     428.618    -282.817
  H      397.100     433.206    -278.743
  H      395.225     427.283    -283.323
  H      398.238     435.321    -276.063
  H      398.080     428.946    -276.923
  H      395.438     431.488    -276.723
  H      396.863     431.091    -279.434
  H      394.581     430.999    -280.353
  H      393.731     429.331    -278.272
  H      395.530     427.617    -279.101
  H      401.927     433.257    -274.563
  H      401.728     431.524    -274.809
  H      394.262     428.094    -280.210
  P      392.640     432.542    -279.574
  C      390.648     431.796    -278.126
  O      391.405     432.897    -278.599
  O      392.007     431.362    -280.456
  O      393.243     433.651    -280.362
  H      391.697     430.624    -279.901
  H      389.911     432.170    -277.420
  H      391.301     431.083    -277.613
  H      390.136     431.308    -278.964
  H      397.920     424.780    -281.485
  H      398.183     425.942    -282.764
  H      396.589     425.276    -282.502

 3  4  5  6  7  8  9  10  11  12  22  25  29  30  31  32 0
 6-311+G(2d,p)
 ****
 33  36  37 0
 6-311+G(2d,p)
 ****
 1  2  13  14  15  16  17  18  19  20  21  23  24  26 0
 3-21G
 ****
 27  28  34  35  38  39  40  41  42  43  44  45  46  47  48 0
 3-21G
 ****


