%nproc=1
%NoSave
%Mem=1900MB
#P OB98/GEN NMR

erre ene a

0 1
  C     -384.063    -122.536     -96.998
  O     -383.032    -122.199     -96.068
  P     -382.759    -123.249     -94.878
  C     -380.305    -124.063     -95.167
  O     -381.682    -124.310     -95.410
  C     -379.648    -123.413     -96.384
  O     -380.214    -122.123     -96.651
  C     -378.155    -123.171     -96.226
  O     -377.398    -124.351     -96.453
  C     -377.904    -122.158     -97.336
  O     -377.745    -122.834     -98.595
  C     -379.204    -121.332     -97.327
  N     -376.961    -116.787     -97.341
  C     -376.837    -117.840     -98.229
  N     -376.018    -117.636     -99.285
  N     -377.460    -118.977     -98.096
  C     -378.263    -119.024     -97.006
  C     -378.472    -118.052     -96.057
  C     -377.753    -116.805     -96.201
  O     -377.804    -115.857     -95.426
  N     -379.372    -118.466     -95.107
  C     -379.732    -119.672     -95.499
  N     -379.077    -120.065     -96.639
  O     -384.120    -124.094     -94.834
  O     -382.456    -122.610     -93.566
  H     -378.461    -123.497     -98.657
  H     -384.261    -124.450     -93.935
  H     -376.454    -115.934     -97.488
  H     -380.460    -120.297     -94.997
  H     -379.568    -121.137     -98.345
  H     -376.994    -121.562     -97.172
  H     -375.565    -116.760     -99.489
  H     -377.928    -122.718     -95.253
  H     -375.944    -118.385     -99.967
  H     -379.828    -124.065     -97.252
  H     -379.795    -124.998     -94.929
  H     -380.211    -123.419     -94.282
  P     -376.886    -125.150     -95.157
  C     -376.803    -127.634     -95.916
  O     -377.538    -126.611     -95.273
  O     -377.690    -124.460     -93.962
  O     -375.413    -125.105     -94.947
  H     -377.179    -124.520     -93.133
  H     -375.754    -127.618     -95.616
  H     -376.878    -127.508     -97.002
  H     -377.228    -128.602     -95.643
  H     -384.145    -121.764     -97.734
  H     -384.993    -122.635     -96.479
  H     -383.822    -123.462     -97.477

 3  4  5  6  7  8  9  10  11  12  23  26  30  31  33  0
 6-311+G(2d,p)
 ****
 35  36  37  38 0
 6-311+G(2d,p)
 ****
 1  2  13  14  15  16  17  18  19  20  21  22  24  25  27  28  29 0
 3-21G
 ****
 32  34  39  40  41  42  43  44  45  46  47  48  49 0
 3-21G
 ****


