%nproc=1
%NoSave
%Mem=1900MB
#P OB98/GEN NMR

erre ene a

0 1
  C      285.342    -374.292     118.133
  O      285.360    -372.897     117.893
  H      284.943    -374.792     117.249
  H      284.711    -374.534     118.990
  H      286.362    -374.652     118.307
  P      285.646    -371.922     119.135
  C      287.729    -370.630     118.333
  O      287.237    -371.693     119.144
  C      289.149    -370.236     118.735
  O      289.178    -369.738     120.088
  C      290.141    -371.390     118.721
  O      290.417    -371.920     117.446
  C      291.280    -370.831     119.560
  O      292.154    -369.996     118.803
  C      290.508    -369.986     120.603
  N      290.470    -370.621     121.916
  C      291.182    -369.980     122.922
  O      291.831    -368.953     122.748
  N      291.146    -370.585     124.150
  C      290.531    -371.762     124.445
  O      290.556    -372.267     125.562
  C      289.827    -372.414     123.327
  C      289.826    -371.826     122.133
  O      285.090    -372.373     120.454
  O      285.081    -370.505     118.650
  H      292.724    -369.526     119.441
  H      284.973    -369.884     119.409
  H      291.645    -370.129     124.900
  H      289.335    -373.357     123.523
  H      289.312    -372.281     121.293
  H      290.981    -369.000     120.715
  H      291.890    -371.621     120.004
  H      289.710    -372.218     119.302
  H      289.476    -369.423     118.076
  H      287.065    -369.769     118.476
  H      287.701    -370.928     117.281
  P      291.114    -373.330     117.201
  C      289.158    -375.065     117.103
  O      290.203    -374.472     117.866
  O      292.592    -373.395     117.420
  O      290.841    -373.556     115.623
  H      291.615    -374.038     115.269
  H      288.656    -375.801     117.696
  H      289.572    -375.530     116.233
  H      288.460    -374.310     116.806

 6  7  8  9  10  11  12  13  14  15  16  26  31  32  33  34  35 0
 6-311+G(2d,p)
 ****
 36  37 0
 6-311+G(2d,p)
 ****
 1  2  3  4  5  17  18  19  20  21  22  23  24  25 0
 3-21G
 ****
 27  28  29  30  38  39  40  41  42  43  44  45 0
 3-21G
 ****


