%nproc=1
%NoSave
%Mem=1900MB
#P OB98/GEN NMR

erre ene a

0 1
  C     -122.731      48.068    1319.011
  O     -123.528      47.295    1318.142
  H     -123.088      47.935    1320.035
  H     -122.818      49.120    1318.743
  H     -121.695      47.748    1318.943
  P     -123.245      47.441    1316.567
  C     -123.502      44.850    1316.353
  O     -123.936      46.141    1315.939
  C     -124.118      43.770    1315.466
  O     -123.865      44.053    1314.069
  C     -123.556      42.355    1315.695
  O     -124.093      41.732    1316.844
  C     -124.027      41.680    1314.419
  O     -125.442      41.421    1314.493
  C     -123.722      42.780    1313.363
  N     -122.377      42.660    1312.777
  C     -122.084      41.454    1312.131
  O     -122.919      40.554    1312.078
  N     -120.820      41.288    1311.603
  C     -119.954      42.242    1311.677
  N     -118.724      42.005    1311.135
  C     -120.225      43.546    1312.332
  C     -121.443      43.681    1312.856
  O     -121.682      47.109    1316.445
  O     -123.655      48.734    1315.947
  H     -125.571      40.735    1315.154
  H     -121.426      47.026    1315.483
  H     -119.453      44.311    1312.383
  H     -121.716      44.605    1313.350
  H     -124.469      42.777    1312.561
  H     -123.538      40.732    1314.218
  H     -122.462      42.362    1315.715
  H     -125.194      43.797    1315.603
  H     -118.559      41.081    1310.750
  H     -123.825      44.705    1317.401
  H     -117.940      42.632    1311.275
  H     -122.408      44.795    1316.301
  P     -123.088      40.836    1317.724
  C     -124.466      41.462    1319.830
  O     -123.867      40.412    1319.057
  O     -121.978      41.889    1318.244
  O     -122.437      39.702    1316.978
  H     -121.093      41.467    1318.297
  H     -124.950      41.042    1320.687
  H     -125.186      41.979    1319.231
  H     -123.708      42.147    1320.148

 6  7  8  9  10  11  12  13  14  15  16  26  30  31  32  33  35 0
 6-311+G(2d,p)
 ****
 37  38 0
 6-311+G(2d,p)
 ****
 1  2  3  4  5  17  18  19  20  21  22  23  24  25 0
 3-21G
 ****
 27  28  29  34  36  39  40  41  42  43  44  45  46 0
 3-21G
 ****


