%nproc=1
%NoSave
%Mem=1900MB
#P OB98/GEN NMR

erre ene a

0 1
  C      739.975     269.447    1364.130
  O      740.139     268.077    1363.834
  H      739.389     269.533    1365.049
  H      739.440     269.959    1363.325
  H      740.955     269.920    1364.295
  P      740.870     267.673    1362.464
  C      738.584     266.930    1361.487
  O      739.928     266.560    1361.761
  C      737.701     265.684    1361.358
  O      738.153     264.904    1360.205
  C      737.743     264.750    1362.588
  O      736.460     264.090    1362.681
  C      738.816     263.771    1362.185
  O      738.821     262.637    1363.021
  C      738.488     263.580    1360.700
  N      739.575     262.976    1359.967
  C      739.570     261.566    1359.872
  O      738.670     260.927    1360.406
  N      740.584     260.964    1359.177
  C      741.554     261.667    1358.697
  N      742.547     260.985    1358.046
  C      741.636     263.130    1358.821
  C      740.631     263.731    1359.444
  O      742.300     267.278    1362.577
  O      740.679     268.954    1361.529
  H      739.612     262.068    1362.835
  H      741.514     269.453    1361.476
  H      742.490     263.672    1358.413
  H      740.581     264.800    1359.593
  H      737.582     262.937    1360.591
  H      739.814     264.218    1362.291
  H      737.965     265.297    1363.524
  H      736.648     266.022    1361.141
  H      742.450     259.973    1358.001
  H      738.566     267.489    1360.552
  H      743.370     261.432    1357.633
  H      738.201     267.584    1362.297
  P      735.193     264.738    1363.448
  C      735.932     263.314    1365.475
  O      734.828     263.847    1364.703
  O      734.021     265.038    1362.536
  O      735.744     266.102    1364.095
  H      735.029     266.749    1364.120
  H      735.551     262.734    1366.289
  H      736.522     264.121    1365.857
  H      736.538     262.694    1364.849

 6  7  8  9  10  11  12  13  14  15  16  26  30  31  32  33  35 0
 6-311+G(2d,p)
 ****
 37  38 0
 6-311+G(2d,p)
 ****
 1  2  3  4  5  17  18  19  20  21  22  23  24  25 0
 3-21G
 ****
 27  28  29  34  36  39  40  41  42  43  44  45  46 0
 3-21G
 ****


