%nproc=1
%NoSave
%Mem=1900MB
#P OB98/GEN NMR

erre ene a

0 1
  C      216.017    -130.274      88.014
  O      216.937    -130.857      88.947
  P      216.319    -131.728      90.143
  C      217.093    -134.091      90.940
  O      217.449    -132.738      90.675
  C      218.349    -134.956      91.056
  O      218.989    -135.109      89.773
  C      219.410    -134.355      91.965
  O      219.077    -134.564      93.322
  C      220.669    -135.098      91.512
  O      220.865    -136.309      92.267
  C      220.377    -135.409      90.027
  N      221.253    -134.683      89.120
  C      221.398    -135.232      87.843
  O      220.819    -136.278      87.543
  N      222.211    -134.589      86.940
  C      222.849    -133.509      87.301
  N      223.644    -132.922      86.366
  C      222.740    -132.917      88.653
  C      221.937    -133.550      89.499
  O      215.283    -132.695      89.398
  O      215.655    -130.910      91.205
  H      221.732    -136.651      91.993
  H      214.523    -132.883      89.978
  H      223.301    -132.025      88.908
  H      221.805    -133.185      90.514
  H      220.507    -136.482      89.834
  H      221.570    -134.485      91.669
  H      219.524    -133.280      91.758
  H      218.058    -135.952      91.423
  H      223.694    -133.353      85.454
  H      216.445    -134.473      90.146
  H      224.189    -132.084      86.540
  H      216.503    -134.123      91.872
  P      218.872    -133.279      94.248
  C      217.199    -132.986      96.182
  O      218.177    -133.828      95.589
  O      217.649    -132.530      93.525
  O      220.046    -132.369      94.438
  H      217.485    -131.663      93.945
  H      216.665    -133.564      96.954
  H      216.486    -132.652      95.433
  H      217.680    -132.128      96.654
  H      216.560    -129.724      87.274
  H      215.353    -129.614      88.533
  H      215.452    -131.049      87.539

 3  4  5  6  7  8  9  10  11  12  13  21  23  27  28  29  30  32 0
 6-311+G(2d,p)
 ****
 34  35 0
 6-311+G(2d,p)
 ****
 1  2  14  15  16  17  18  19  20  22  24  25  26 0
 3-21G
 ****
 31  33  36  37  38  39  40  41  42  43  44  45  46 0
 3-21G
 ****


