%nproc=1
%NoSave
%Mem=1900MB
#P OB98/GEN NMR

erre ene a

0 1
  C      141.870    -741.289     -56.007
  O      143.072    -741.506     -56.726
  H      141.052    -741.780     -56.536
  H      141.660    -740.216     -55.937
  H      141.951    -741.718     -55.005
  P      144.401    -740.832     -56.127
  C      144.726    -739.911     -58.529
  O      145.327    -740.562     -57.412
  C      145.727    -739.800     -59.679
  O      146.830    -738.949     -59.312
  C      146.333    -741.137     -60.108
  O      145.464    -741.803     -61.009
  C      147.592    -740.655     -60.817
  O      147.272    -740.232     -62.157
  C      148.026    -739.447     -59.972
  N      151.886    -737.428     -57.260
  C      151.186    -736.948     -58.302
  N      150.211    -737.558     -59.015
  C      149.972    -738.799     -58.534
  C      150.616    -739.415     -57.469
  C      151.611    -738.677     -56.812
  N      152.339    -739.175     -55.745
  N      150.111    -740.691     -57.271
  C      149.142    -740.802     -58.159
  N      149.041    -739.703     -58.971
  O      145.042    -741.559     -54.990
  O      143.864    -739.365     -55.771
  H      146.998    -741.034     -62.643
  H      143.271    -739.040     -56.473
  H      151.430    -735.941     -58.619
  H      148.470    -741.661     -58.236
  H      148.407    -738.625     -60.600
  H      148.347    -741.441     -60.909
  H      146.617    -741.747     -59.252
  H      145.216    -739.316     -60.524
  H      144.382    -738.907     -58.235
  H      153.151    -738.658     -55.464
  H      152.214    -740.153     -55.502
  H      143.854    -740.499     -58.825
  P      144.667    -743.122     -60.550
  C      145.629    -744.073     -62.737
  O      144.487    -743.985     -61.899
  O      143.421    -742.858     -59.774
  O      145.744    -743.969     -59.731
  H      145.290    -744.648     -59.188
  H      145.396    -744.665     -63.597
  H      146.433    -744.528     -62.198
  H      145.919    -743.091     -63.048

 6  7  8  9  10  11  12  13  14  15  25  28  32  33  34  35 0
 6-311+G(2d,p)
 ****
 36  39  40 0
 6-311+G(2d,p)
 ****
 1  2  3  4  5  16  17  18  19  20  21  22  23  24 0
 3-21G
 ****
 26  27  29  30  31  37  38  41  42  43  44  45  46  47 0
 3-21G
 ****
 48 0
 3-21G
 ****


