%nproc=1
%NoSave
%Mem=1900MB
#P OB98/GEN NMR

erre ene a

0 1
  C       10.120     170.158    1042.454
  O       10.172     170.856    1043.683
  P        9.627     172.361    1043.786
  C       11.555     173.828    1042.889
  O       10.911     173.287    1044.048
  C       12.483     174.954    1043.292
  O       11.732     176.123    1043.738
  C       13.409     174.627    1044.471
  O       14.389     173.625    1044.266
  C       13.904     176.006    1044.843
  O       14.967     176.457    1044.011
  C       12.635     176.867    1044.605
  N       11.961     177.247    1045.862
  C       12.527     178.312    1046.548
  O       13.513     178.928    1046.153
  N       11.919     178.650    1047.744
  C       10.882     177.988    1048.319
  O       10.412     178.299    1049.403
  C       10.334     176.855    1047.538
  C       10.880     176.533    1046.368
  O        8.493     172.565    1044.755
  O        9.253     172.729    1042.266
  H       14.693     176.315    1043.081
  H        9.999     172.676    1041.629
  H       12.325     179.408    1048.261
  H        9.493     176.328    1047.967
  H       10.517     175.709    1045.783
  H       12.889     177.809    1044.073
  H       14.276     176.030    1045.885
  H       12.780     174.266    1045.296
  H       13.056     175.268    1042.393
  H       10.792     174.209    1042.215
  H       12.096     173.028    1042.354
  P       14.593     172.396    1045.253
  C       16.962     172.903    1046.218
  O       16.170     172.082    1045.361
  O       13.690     171.209    1045.056
  O       14.294     173.072    1046.685
  H       13.892     172.391    1047.281
  H       18.014     172.605    1046.125
  H       16.634     172.788    1047.251
  H       16.866     173.949    1045.920
  H       10.526     169.177    1042.584
  H       10.691     170.686    1041.719
  H        9.103     170.083    1042.129

 3  4  5  6  7  8  9  10  11  12  13  23  28  29  30  31  32 0
 6-311+G(2d,p)
 ****
 33  34 0
 6-311+G(2d,p)
 ****
 1  2  14  15  16  17  18  19  20  21  22  24  25  26  27 0
 3-21G
 ****
 35  36  37  38  39  40  41  42  43  44  45 0
 3-21G
 ****


