%nproc=1
%NoSave
%Mem=1900MB
#P OB98/GEN NMR

erre ene a

0 1
  C     -222.161    -180.386     -41.786
  O     -221.171    -181.418     -41.754
  P     -221.018    -182.356     -43.052
  C     -222.083    -184.557     -43.953
  O     -222.111    -183.529     -42.972
  C     -223.070    -185.676     -43.590
  O     -222.586    -186.478     -42.490
  C     -224.436    -185.170     -43.149
  O     -225.262    -184.858     -44.268
  C     -224.981    -186.388     -42.414
  O     -225.484    -187.349     -43.364
  C     -223.723    -186.932     -41.720
  N     -223.813    -188.368     -36.793
  C     -224.038    -189.052     -37.940
  N     -224.012    -188.599     -39.214
  C     -223.707    -187.292     -39.246
  C     -223.448    -186.458     -38.160
  C     -223.512    -187.043     -36.885
  N     -223.278    -186.341     -35.724
  N     -223.179    -185.171     -38.585
  C     -223.253    -185.230     -39.901
  N     -223.578    -186.487     -40.343
  O     -219.640    -183.123     -42.779
  O     -220.983    -181.600     -44.343
  H     -224.742    -187.584     -43.950
  H     -219.173    -183.279     -43.624
  H     -224.267    -190.111     -37.820
  H     -223.081    -184.397     -40.566
  H     -223.701    -188.037     -41.713
  H     -225.810    -186.135     -41.744
  H     -224.334    -184.318     -42.457
  H     -223.184    -186.327     -44.466
  H     -221.074    -184.962     -44.040
  H     -223.315    -186.841     -34.849
  H     -223.033    -185.364     -35.788
  H     -222.326    -184.123     -44.932
  P     -225.381    -183.309     -44.679
  C     -226.401    -181.227     -43.500
  O     -226.330    -182.635     -43.576
  O     -226.284    -183.362     -46.000
  O     -224.069    -182.625     -44.916
  H     -226.057    -182.617     -46.595
  H     -227.296    -180.948     -42.935
  H     -226.462    -180.778     -44.495
  H     -225.518    -180.844     -42.978
  H     -222.146    -179.849     -40.861
  H     -223.127    -180.823     -41.929
  H     -221.950    -179.714     -42.592

 3  4  5  6  7  8  9  10  11  12  22  25  29  30  31  32 0
 6-311+G(2d,p)
 ****
 33  36  37 0
 6-311+G(2d,p)
 ****
 1  2  13  14  15  16  17  18  19  20  21  23  24  26 0
 3-21G
 ****
 27  28  34  35  38  39  40  41  42  43  44  45  46  47  48 0
 3-21G
 ****


