%nproc=1
%NoSave
%Mem=1900MB
#P OB98/GEN NMR

erre ene a

0 1
  C     -517.827     608.969     272.534
  O     -518.945     609.628     273.086
  H     -517.709     609.280     271.493
  H     -517.998     607.887     272.557
  H     -516.913     609.210     273.081
  P     -519.078     609.640     274.684
  C     -520.503     611.754     275.173
  O     -520.484     610.341     275.023
  C     -521.928     612.234     275.473
  O     -522.706     612.172     274.235
  C     -522.669     611.406     276.534
  O     -523.487     612.281     277.316
  C     -523.576     610.529     275.694
  O     -524.709     610.067     276.426
  C     -523.929     611.481     274.555
  N     -527.856     608.745     273.039
  C     -527.679     609.502     274.179
  N     -528.669     609.485     275.091
  N     -526.599     610.216     274.408
  C     -525.693     610.159     273.405
  C     -525.749     609.446     272.238
  C     -526.936     608.644     271.994
  O     -527.146     607.940     271.021
  N     -524.594     609.612     271.508
  C     -523.840     610.400     272.248
  N     -524.458     610.763     273.410
  O     -517.993     610.744     275.117
  O     -518.838     608.330     275.357
  H     -525.023     609.237     276.020
  H     -517.149     610.302     275.340
  H     -528.689     608.199     272.914
  H     -522.837     610.723     272.002
  H     -524.671     612.227     274.849
  H     -523.028     609.653     275.323
  H     -529.536     608.981     274.973
  H     -522.010     610.835     277.189
  H     -528.570     610.065     275.913
  H     -521.884     613.295     275.767
  H     -520.154     612.218     274.246
  H     -519.827     612.039     275.986
  P     -523.653     611.969     278.880
  C     -522.540     614.204     279.632
  O     -523.684     613.354     279.684
  O     -522.227     611.347     279.275
  O     -524.758     611.016     279.195
  H     -522.337     610.661     279.961
  H     -522.721     615.082     280.217
  H     -522.350     614.485     278.617
  H     -521.691     613.683     280.023

 6  7  8  9  10  11  12  13  14  15  26  29  33  34 0
 6-311+G(2d,p)
 ****
 36  38  39  40  41 0
 6-311+G(2d,p)
 ****
 1  2  3  4  5  16  17  18  19  20  21  22  23  24  25 0
 3-21G
 ****
 27  28  30  31  32  35  37  42  43  44  45  46  47 0
 3-21G
 ****
 48  49 0
 3-21G
 ****


