%nproc=1
%NoSave
%Mem=1900MB
#P OB98/GEN NMR

erre ene a

0 1
  C      149.520     186.598      41.376
  O      149.771     186.978      40.040
  H      149.449     185.507      41.420
  H      148.574     187.021      41.722
  H      150.335     186.920      42.029
  P      149.916     188.540      39.704
  C      147.351     188.409      39.362
  O      148.435     189.129      39.928
  C      146.034     189.123      39.655
  O      145.785     189.203      41.074
  C      145.967     190.568      39.174
  O      145.826     190.700      37.770
  C      144.734     191.038      39.924
  O      143.553     190.518      39.287
  C      144.962     190.382      41.306
  N      145.612     191.282      42.257
  C      144.893     192.422      42.633
  O      143.775     192.642      42.168
  N      145.469     193.313      43.506
  C      146.671     193.096      43.947
  N      147.198     194.014      44.803
  C      147.472     191.919      43.561
  C      146.889     191.062      42.726
  O      150.547     188.873      38.390
  O      150.697     189.151      40.960
  H      143.454     190.994      38.443
  H      150.823     190.116      40.798
  H      148.480     191.800      43.932
  H      147.417     190.176      42.392
  H      144.014     190.035      41.737
  H      144.632     192.123      39.954
  H      146.831     191.140      39.535
  H      145.228     188.517      39.220
  H      146.625     194.810      45.049
  H      147.352     187.399      39.784
  H      148.151     193.965      45.136
  H      147.472     188.340      38.277
  P      146.143     192.144      37.138
  C      143.707     193.028      37.467
  O      145.084     193.158      37.784
  O      145.662     191.989      35.623
  O      147.566     192.588      37.249
  H      146.420     191.806      35.036
  H      143.150     193.782      37.983
  H      143.362     192.061      37.767
  H      143.571     193.143      36.412

 6  7  8  9  10  11  12  13  14  15  16  26  30  31  32  33  35 0
 6-311+G(2d,p)
 ****
 37  38 0
 6-311+G(2d,p)
 ****
 1  2  3  4  5  17  18  19  20  21  22  23  24  25 0
 3-21G
 ****
 27  28  29  34  36  39  40  41  42  43  44  45  46 0
 3-21G
 ****


