%nproc=1
%NoSave
%Mem=1900MB
#P OB98/GEN NMR

erre ene a

0 1
  C      -79.084    -106.199      59.076
  O      -80.032    -105.160      58.952
  P      -79.630    -103.742      58.330
  C      -79.641    -102.683      60.661
  O      -80.133    -102.597      59.331
  C      -79.391    -101.295      61.253
  O      -78.351    -100.628      60.493
  C      -80.626    -100.384      61.258
  O      -80.592     -99.626      62.473
  C      -80.393     -99.482      60.062
  O      -81.120     -98.266      60.149
  C      -78.868     -99.339      60.107
  N      -78.312     -98.902      58.835
  C      -77.708     -97.643      58.808
  O      -77.777     -96.902      59.791
  N      -77.058     -97.255      57.663
  C      -77.167     -97.974      56.589
  N      -76.450     -97.588      55.499
  C      -78.008     -99.185      56.518
  C      -78.510     -99.612      57.673
  O      -80.034    -103.539      56.906
  O      -78.035    -103.681      58.483
  H      -77.637    -103.482      57.615
  H      -80.780     -97.749      60.909
  H      -78.170     -99.680      55.572
  H      -79.119    -100.508      57.732
  H      -78.572     -98.625      60.886
  H      -80.702     -99.998      59.144
  H      -81.566    -100.943      61.208
  H      -79.016    -101.424      62.274
  H      -75.854     -96.776      55.597
  H      -78.699    -103.235      60.642
  H      -76.223     -98.236      54.746
  H      -80.345    -103.246      61.284
  P      -81.887     -99.648      63.423
  C      -83.130     -97.665      62.303
  O      -82.495     -98.167      63.459
  O      -81.219     -99.772      64.879
  O      -82.850    -100.773      63.212
  H      -81.858    -100.184      65.488
  H      -83.419     -96.628      62.486
  H      -84.030     -98.245      62.080
  H      -82.450     -97.693      61.445
  H      -79.551    -107.057      59.512
  H      -78.279    -105.874      59.701
  H      -78.704    -106.453      58.108

 3  4  5  6  7  8  9  10  11  12  13  24  27  28  29  30  32 0
 6-311+G(2d,p)
 ****
 34  35 0
 6-311+G(2d,p)
 ****
 1  2  14  15  16  17  18  19  20  21  22  23  25  26 0
 3-21G
 ****
 31  33  36  37  38  39  40  41  42  43  44  45  46 0
 3-21G
 ****


