%nproc=1
%NoSave
%Mem=1900MB
#P OB98/GEN NMR

erre ene a

0 1
  C     -500.601      80.928    -408.336
  O     -501.013      81.250    -407.009
  P     -502.402      80.673    -406.460
  C     -502.496      81.526    -404.032
  O     -502.271      80.410    -404.885
  C     -501.776      81.340    -402.688
  O     -502.208      80.110    -402.043
  C     -500.248      81.249    -402.847
  O     -499.591      81.822    -401.707
  C     -499.993      79.755    -402.824
  O     -498.641      79.457    -402.482
  C     -501.034      79.301    -401.800
  N     -502.058      75.048    -399.143
  C     -501.863      76.326    -398.751
  N     -501.619      77.410    -399.517
  C     -501.596      77.074    -400.820
  C     -501.788      75.819    -401.371
  C     -502.018      74.766    -400.469
  N     -502.196      73.459    -400.872
  N     -501.687      75.860    -402.753
  C     -501.393      77.123    -403.020
  N     -501.363      77.894    -401.891
  O     -502.984      79.540    -407.241
  O     -503.363      81.958    -406.515
  H     -498.526      78.495    -402.537
  H     -504.242      81.689    -406.852
  H     -501.905      76.498    -397.680
  H     -501.185      77.512    -404.002
  H     -500.707      79.503    -400.773
  H     -500.199      79.330    -403.812
  H     -499.859      81.723    -403.757
  H     -502.044      82.163    -402.021
  H     -503.570      81.653    -403.863
  H     -502.233      72.753    -400.146
  H     -502.017      73.216    -401.835
  H     -502.158      82.434    -404.544
  P     -499.035      83.325    -401.892
  C     -496.701      83.174    -403.062
  O     -497.435      83.206    -401.862
  O     -499.642      84.306    -400.940
  O     -499.383      83.619    -403.429
  H     -499.090      82.935    -404.046
  H     -495.638      83.219    -402.825
  H     -496.953      84.025    -403.695
  H     -496.899      82.240    -403.599
  H     -499.658      81.391    -408.539
  H     -501.331      81.284    -409.032
  H     -500.505      79.867    -408.432

 3  4  5  6  7  8  9  10  11  12  22  25  29  30  31  32 0
 6-311+G(2d,p)
 ****
 33  36  37 0
 6-311+G(2d,p)
 ****
 1  2  13  14  15  16  17  18  19  20  21  23  24  26 0
 3-21G
 ****
 27  28  34  35  38  39  40  41  42  43  44  45  46  47  48 0
 3-21G
 ****


