%nproc=1
%NoSave
%Mem=1900MB
#P OB98/GEN NMR

erre ene a

0 1
  C      -70.887     -31.298    -150.309
  O      -70.832     -32.671    -149.900
  P      -69.687     -33.102    -148.864
  C      -70.670     -32.078    -146.684
  O      -70.343     -33.254    -147.409
  C      -70.307     -32.241    -145.205
  O      -70.497     -31.015    -144.469
  C      -71.148     -33.280    -144.480
  O      -70.661     -34.595    -144.706
  C      -70.928     -32.879    -143.030
  O      -69.657     -33.380    -142.571
  C      -70.893     -31.349    -143.119
  N      -74.094     -29.834    -139.419
  C      -72.904     -30.472    -139.376
  N      -72.120     -30.859    -140.404
  C      -72.670     -30.507    -141.577
  C      -73.875     -29.855    -141.778
  C      -74.607     -29.512    -140.630
  N      -75.817     -28.861    -140.679
  N      -74.117     -29.675    -143.125
  C      -73.066     -30.195    -143.725
  N      -72.169     -30.719    -142.834
  O      -68.801     -31.774    -148.731
  O      -68.866     -34.263    -149.320
  H      -69.629     -34.330    -142.790
  H      -67.864     -32.013    -148.607
  H      -72.530     -30.704    -138.383
  H      -72.910     -30.215    -144.796
  H      -70.154     -30.908    -142.439
  H      -71.690     -33.287    -142.360
  H      -72.209     -33.181    -144.742
  H      -69.246     -32.519    -145.146
  H      -71.737     -31.859    -146.787
  H      -76.270     -28.622    -139.813
  H      -76.193     -28.598    -141.580
  H      -70.139     -31.228    -147.126
  P      -71.746     -35.743    -144.988
  C      -73.168     -35.082    -147.058
  O      -72.004     -35.716    -146.568
  O      -73.087     -35.129    -144.363
  O      -71.408     -37.069    -144.398
  H      -73.665     -35.848    -144.043
  H      -73.039     -34.888    -148.126
  H      -73.346     -34.133    -146.549
  H      -74.031     -35.740    -146.922
  H      -71.696     -31.163    -150.996
  H      -69.967     -31.030    -150.785
  H      -71.039     -30.676    -149.452

 3  4  5  6  7  8  9  10  11  12  22  25  29  30  31  32 0
 6-311+G(2d,p)
 ****
 33  36  37 0
 6-311+G(2d,p)
 ****
 1  2  13  14  15  16  17  18  19  20  21  23  24  26 0
 3-21G
 ****
 27  28  34  35  38  39  40  41  42  43  44  45  46  47  48 0
 3-21G
 ****


