%nproc=1
%NoSave
%Mem=1900MB
#P OB98/GEN NMR

erre ene a

0 1
  C     -371.244     152.782     389.738
  O     -370.729     153.757     390.626
  P     -369.340     153.518     391.391
  C     -370.708     152.863     393.466
  O     -369.648     152.497     392.589
  C     -370.171     153.164     394.867
  O     -371.240     153.711     395.671
  C     -369.638     151.930     395.587
  O     -368.506     152.306     396.373
  C     -370.763     151.534     396.531
  O     -370.261     150.817     397.668
  C     -371.383     152.899     396.849
  N     -374.840     151.192     400.245
  C     -373.487     151.138     400.235
  N     -372.636     151.589     399.290
  C     -373.309     152.193     398.297
  C     -374.685     152.324     398.168
  C     -375.469     151.785     399.203
  N     -376.848     151.848     399.219
  N     -375.008     152.980     396.992
  C     -373.850     153.251     396.436
  N     -372.793     152.807     397.187
  O     -368.622     154.755     391.800
  O     -368.475     152.633     390.378
  H     -369.953     149.942     397.346
  H     -367.537     152.906     390.407
  H     -373.031     150.667     401.100
  H     -373.718     153.756     395.488
  H     -370.861     153.396     397.676
  H     -371.472     150.883     396.004
  H     -369.368     151.117     394.904
  H     -369.391     153.932     394.784
  H     -371.413     152.030     393.528
  H     -377.314     151.547     400.058
  H     -377.303     152.445     398.539
  H     -371.234     153.733     393.060
  P     -367.414     151.150     396.639
  C     -368.451     150.597     398.964
  O     -368.125     150.148     397.666
  O     -366.090     151.713     397.038
  O     -367.424     150.388     395.229
  H     -368.279     150.516     394.760
  H     -368.889     149.763     399.522
  H     -369.184     151.404     398.909
  H     -367.558     150.942     399.486
  H     -372.172     153.125     389.331
  H     -371.404     151.866     390.268
  H     -370.545     152.618     388.944

 3  4  5  6  7  8  9  10  11  12  22  25  29  30  31  32 0
 6-311+G(2d,p)
 ****
 33  36  37 0
 6-311+G(2d,p)
 ****
 1  2  13  14  15  16  17  18  19  20  21  23  24  26 0
 3-21G
 ****
 27  28  34  35  38  39  40  41  42  43  44  45  46  47  48 0
 3-21G
 ****


