%nproc=1
%NoSave
%Mem=1900MB
#P OB98/GEN NMR

erre ene a

0 1
  C     -235.058     -37.518    -184.802
  O     -235.088     -38.923    -184.929
  H     -234.225     -37.243    -184.150
  H     -235.988     -37.162    -184.351
  H     -234.913     -37.049    -185.778
  P     -236.229     -39.549    -185.872
  C     -237.766     -40.296    -183.911
  O     -237.587     -39.424    -185.018
  C     -239.117     -40.034    -183.238
  O     -239.265     -40.924    -182.105
  C     -239.273     -38.600    -182.730
  O     -240.583     -38.127    -183.045
  C     -239.089     -38.715    -181.228
  O     -239.754     -37.672    -180.519
  C     -239.605     -40.132    -180.951
  N     -239.026     -40.695    -179.733
  C     -239.672     -40.392    -178.531
  O     -240.673     -39.672    -178.528
  N     -239.143     -40.864    -177.357
  C     -238.030     -41.528    -177.374
  N     -237.544     -41.949    -176.175
  C     -237.288     -41.828    -178.614
  C     -237.840     -41.391    -179.745
  O     -235.903     -41.114    -185.838
  O     -236.304     -38.975    -187.247
  H     -239.801     -37.931    -179.573
  H     -236.395     -41.601    -186.543
  H     -236.356     -42.371    -178.576
  H     -237.364     -41.565    -180.703
  H     -240.700     -40.132    -180.852
  H     -238.020     -38.655    -180.987
  H     -238.541     -37.916    -183.157
  H     -239.913     -40.294    -183.946
  H     -238.074     -41.715    -175.345
  H     -236.959     -40.128    -183.191
  H     -236.673     -42.447    -176.067
  H     -237.726     -41.334    -184.259
  P     -240.694     -37.165    -184.327
  C     -240.619     -34.928    -183.020
  O     -239.974     -35.779    -183.955
  O     -242.248     -36.789    -184.380
  O     -240.217     -37.799    -185.592
  H     -242.709     -37.341    -185.039
  H     -240.028     -34.049    -182.871
  H     -240.733     -35.443    -182.089
  H     -241.582     -34.651    -183.395

 6  7  8  9  10  11  12  13  14  15  16  26  30  31  32  33  35 0
 6-311+G(2d,p)
 ****
 37  38 0
 6-311+G(2d,p)
 ****
 1  2  3  4  5  17  18  19  20  21  22  23  24  25 0
 3-21G
 ****
 27  28  29  34  36  39  40  41  42  43  44  45  46 0
 3-21G
 ****


