%nproc=1
%NoSave
%Mem=1900MB
#P OB98/GEN NMR

erre ene a

0 1
  C      193.071      35.605      58.167
  O      193.308      37.005      57.988
  P      193.214      37.942      59.287
  C      191.217      38.719      60.801
  O      191.648      38.073      59.609
  C      189.736      39.076      60.699
  O      189.521      40.074      59.670
  C      188.839      37.907      60.319
  O      188.654      37.020      61.411
  C      187.580      38.642      59.871
  O      186.796      39.034      61.010
  C      188.169      39.893      59.183
  N      188.135      39.812      57.727
  C      186.869      39.865      57.147
  O      185.831      39.950      57.804
  N      186.835      39.799      55.779
  C      187.918      39.656      54.957
  O      187.825      39.610      53.736
  C      189.222      39.554      55.631
  C      189.270      39.634      56.963
  O      193.616      39.361      58.678
  O      194.072      37.468      60.411
  H      193.298      39.488      57.765
  H      186.282      38.246      61.277
  H      185.930      39.849      55.341
  H      190.099      39.415      55.009
  H      190.225      39.562      57.478
  H      187.613      40.787      59.486
  H      186.938      38.024      59.231
  H      189.272      37.364      59.472
  H      189.419      39.499      61.660
  H      191.796      39.634      60.959
  H      191.406      38.056      61.651
  P      189.251      35.534      61.248
  C      188.167      33.279      60.486
  O      188.148      34.690      60.446
  O      189.140      34.988      62.752
  O      190.632      35.500      60.678
  H      188.291      35.207      63.173
  H      187.179      32.910      60.192
  H      188.396      32.908      61.486
  H      188.909      32.905      59.776
  H      193.165      35.104      57.226
  H      192.084      35.457      58.553
  H      193.787      35.207      58.856

 3  4  5  6  7  8  9  10  11  12  13  24  28  29  30  31  32 0
 6-311+G(2d,p)
 ****
 33  34 0
 6-311+G(2d,p)
 ****
 1  2  14  15  16  17  18  19  20  21  22  23  25  26  27 0
 3-21G
 ****
 35  36  37  38  39  40  41  42  43  44  45 0
 3-21G
 ****


