%nproc=1
%NoSave
%Mem=1900MB
#P OB98/GEN NMR

erre ene a

0 1
  C     -168.425    -951.706     327.846
  O     -167.742    -950.648     327.179
  P     -166.147    -950.568     327.363
  C     -164.813    -950.920     329.573
  O     -165.898    -950.280     328.919
  C     -164.734    -950.518     331.034
  O     -165.853    -951.055     331.756
  C     -163.476    -951.002     331.755
  O     -162.367    -950.204     331.402
  C     -163.914    -950.879     333.207
  O     -163.663    -949.539     333.710
  C     -165.429    -951.160     333.150
  N     -165.778    -952.464     333.706
  C     -165.719    -952.550     335.108
  O     -165.351    -951.572     335.766
  N     -166.015    -953.750     335.704
  C     -166.336    -954.766     334.965
  N     -166.638    -955.931     335.604
  C     -166.404    -954.732     333.486
  C     -166.102    -953.550     332.927
  O     -165.778    -949.182     326.666
  O     -165.397    -951.725     326.796
  H     -162.700    -949.425     333.666
  H     -164.853    -949.203     326.339
  H     -166.675    -955.604     332.926
  H     -166.117    -953.421     331.859
  H     -165.995    -950.389     333.688
  H     -163.359    -951.559     333.851
  H     -163.286    -952.052     331.514
  H     -164.806    -949.404     331.081
  H     -166.576    -955.937     336.611
  H     -163.877    -950.648     329.069
  H     -166.919    -956.779     335.126
  H     -164.943    -952.015     329.473
  P     -160.910    -950.810     331.661
  C     -159.842    -951.990     333.670
  O     -160.870    -951.125     333.229
  O     -159.984    -949.512     331.552
  O     -160.459    -951.904     330.753
  H     -159.038    -949.763     331.606
  H     -159.828    -952.002     334.757
  H     -158.866    -951.644     333.310
  H     -160.036    -953.008     333.311
  H     -169.473    -951.640     327.639
  H     -168.264    -951.625     328.901
  H     -168.051    -952.647     327.499

 3  4  5  6  7  8  9  10  11  12  13  21  23  27  28  29  30  32 0
 6-311+G(2d,p)
 ****
 34  35 0
 6-311+G(2d,p)
 ****
 1  2  14  15  16  17  18  19  20  22  24  25  26 0
 3-21G
 ****
 31  33  36  37  38  39  40  41  42  43  44  45  46 0
 3-21G
 ****


