%nproc=1
%NoSave
%Mem=1900MB
#P OB98/GEN NMR

erre ene a

0 1
  C      382.602     221.153     457.083
  O      383.395     220.077     457.517
  P      383.095     219.391     458.937
  C      384.060     219.481     461.324
  O      384.154     219.983     459.995
  C      385.302     218.669     461.688
  O      386.503     219.378     461.277
  C      385.469     218.432     463.190
  O      384.598     217.409     463.638
  C      386.938     218.078     463.265
  O      387.160     216.698     462.914
  C      387.559     218.992     462.168
  N      390.020     223.343     461.047
  C      389.674     222.258     460.280
  N      389.068     221.131     460.677
  C      388.822     221.137     462.001
  C      389.142     222.152     462.906
  C      389.741     223.300     462.378
  N      390.035     224.420     463.127
  N      388.747     221.787     464.184
  C      388.209     220.573     464.046
  N      388.177     220.184     462.733
  O      382.965     217.887     458.927
  O      381.723     220.071     459.400
  H      388.114     216.513     463.066
  H      381.032     219.377     459.520
  H      389.930     222.331     459.232
  H      387.824     219.970     464.861
  H      388.315     218.466     461.580
  H      387.370     218.223     464.262
  H      385.299     219.365     463.733
  H      385.263     217.714     461.151
  H      383.172     218.834     461.404
  H      390.342     225.237     462.611
  H      389.577     224.531     464.033
  H      383.936     220.338     462.013
  P      384.456     217.117     465.204
  C      385.876     215.856     466.951
  O      385.870     216.504     465.683
  O      383.242     216.346     465.620
  O      384.461     218.589     465.876
  H      383.898     218.581     466.670
  H      385.886     216.609     467.747
  H      386.760     215.231     467.031
  H      384.980     215.218     467.063
  H      382.942     221.482     456.123
  H      382.678     221.958     457.784
  H      381.582     220.838     457.011

 3  4  5  6  7  8  9  10  11  12  22  25  29  30  31  32 0
 6-311+G(2d,p)
 ****
 33  36  37 0
 6-311+G(2d,p)
 ****
 1  2  13  14  15  16  17  18  19  20  21  23  24  26 0
 3-21G
 ****
 27  28  34  35  38  39  40  41  42  43  44  45  46  47  48 0
 3-21G
 ****


