%nproc=1
%NoSave
%Mem=1900MB
#P OB98/GEN NMR

erre ene a

0 1
  C     -265.741     376.976     775.057
  O     -267.034     376.530     774.652
  P     -268.251     376.232     775.644
  C     -268.981     378.738     775.330
  O     -269.364     377.360     775.424
  C     -269.802     379.506     774.277
  O     -269.342     379.158     772.951
  C     -271.274     379.115     774.348
  O     -272.124     379.718     775.309
  C     -271.783     379.217     772.907
  O     -272.371     380.498     772.636
  C     -270.507     379.024     772.084
  N     -272.748     375.935     768.690
  C     -273.190     377.140     769.190
  N     -274.407     377.557     768.764
  N     -272.503     377.858     770.039
  C     -271.355     377.279     770.442
  C     -270.821     376.079     770.049
  C     -271.553     375.308     769.062
  O     -271.204     374.214     768.584
  N     -269.634     375.806     770.683
  C     -269.467     376.834     771.491
  N     -270.472     377.763     771.384
  O     -267.868     375.912     777.063
  O     -268.926     374.905     775.004
  H     -273.174     380.580     773.171
  H     -269.284     374.387     775.763
  H     -273.308     375.410     768.018
  H     -268.618     376.957     772.168
  H     -270.405     379.830     771.316
  H     -272.544     378.466     772.713
  H     -275.022     376.988     768.207
  H     -271.302     378.042     774.600
  H     -274.822     378.343     769.296
  H     -269.630     380.604     774.382
  H     -267.921     378.742     775.068
  H     -269.070     379.225     776.309
  P     -273.191     378.971     776.256
  C     -272.084     379.835     778.404
  O     -273.278     379.781     777.644
  O     -272.432     377.624     776.680
  O     -274.518     378.666     775.605
  H     -273.076     376.967     777.038
  H     -272.333     380.131     779.433
  H     -271.408     380.585     777.985
  H     -271.594     378.844     778.428
  H     -265.119     377.097     774.195
  H     -265.304     376.253     775.714
  H     -265.830     377.913     775.566

 3  4  5  6  7  8  9  10  11  12  23  26  30  31 0
 6-311+G(2d,p)
 ****
 33  35  36  37  38 0
 6-311+G(2d,p)
 ****
 1  2  13  14  15  16  17  18  19  20  21  22  24  25 0
 3-21G
 ****
 27  28  29  32  34  39  40  41  42  43  44  45  46  47  48  49 0
 3-21G
 ****


