%nproc=1
%NoSave
%Mem=1900MB
#P OB98/GEN NMR

erre ene a

0 1
  C      -27.425    -119.275    -213.365
  O      -27.271    -118.326    -214.398
  H      -26.799    -120.143    -213.588
  H      -28.467    -119.605    -213.316
  H      -27.119    -118.863    -212.400
  P      -27.854    -116.848    -214.191
  C      -26.047    -115.136    -214.877
  O      -27.145    -115.933    -215.302
  C      -24.774    -115.983    -214.824
  O      -24.457    -116.417    -216.182
  C      -23.550    -115.217    -214.280
  O      -22.724    -116.134    -213.555
  C      -22.860    -114.801    -215.565
  O      -21.508    -114.479    -215.357
  C      -23.094    -116.031    -216.437
  N      -22.850    -115.743    -217.847
  C      -21.521    -115.659    -218.249
  O      -20.566    -115.800    -217.486
  N      -21.312    -115.326    -219.560
  C      -22.276    -114.971    -220.456
  O      -22.026    -114.605    -221.596
  C      -23.663    -115.027    -219.960
  C      -23.882    -115.412    -218.701
  O      -27.785    -116.307    -212.801
  O      -29.357    -116.936    -214.737
  H      -21.014    -115.272    -215.080
  H      -29.897    -116.212    -214.364
  H      -20.354    -115.271    -219.869
  H      -24.450    -114.735    -220.640
  H      -24.887    -115.447    -218.295
  H      -22.450    -116.862    -216.123
  H      -23.353    -113.920    -215.989
  H      -23.819    -114.371    -213.644
  H      -24.967    -116.888    -214.236
  H      -26.275    -114.743    -213.880
  H      -25.914    -114.299    -215.570
  P      -22.500    -116.000    -211.971
  C      -21.237    -118.202    -211.576
  O      -21.165    -116.779    -211.522
  O      -23.704    -116.339    -211.151
  O      -22.113    -114.460    -211.757
  H      -22.620    -114.104    -211.002
  H      -20.304    -118.619    -211.259
  H      -21.443    -118.511    -212.579
  H      -22.018    -118.544    -210.930

 6  7  8  9  10  11  12  13  14  15  16  26  31  32  33  34  35 0
 6-311+G(2d,p)
 ****
 36  37 0
 6-311+G(2d,p)
 ****
 1  2  3  4  5  17  18  19  20  21  22  23  24  25 0
 3-21G
 ****
 27  28  29  30  38  39  40  41  42  43  44  45 0
 3-21G
 ****


