%nproc=1
%NoSave
%Mem=1900MB
#P OB98/GEN NMR

erre ene a

0 1
  C      120.256    -298.879     182.718
  O      119.938    -299.932     183.607
  H      121.261    -298.517     182.947
  H      119.546    -298.058     182.853
  H      120.235    -299.224     181.680
  P      118.656    -300.825     183.241
  C      120.126    -302.784     182.386
  O      119.120    -301.832     182.080
  C      120.577    -303.504     181.119
  O      121.784    -304.257     181.368
  C      119.561    -304.499     180.565
  O      118.581    -303.852     179.762
  C      120.462    -305.382     179.719
  O      120.781    -304.708     178.482
  C      121.717    -305.488     180.597
  N      123.945    -309.891     181.770
  C      124.180    -309.035     180.710
  N      125.136    -309.409     179.835
  N      123.530    -307.915     180.522
  C      122.585    -307.680     181.463
  C      122.256    -308.455     182.554
  C      122.993    -309.679     182.759
  O      122.833    -310.469     183.688
  N      121.243    -307.893     183.284
  C      120.943    -306.793     182.623
  N      121.726    -306.618     181.511
  O      117.704    -299.782     182.483
  O      117.962    -301.447     184.405
  H      119.936    -304.543     178.022
  H      117.001    -299.495     183.096
  H      124.467    -310.746     181.864
  H      120.176    -306.086     182.915
  H      122.634    -305.553     180.002
  H      119.991    -306.328     179.450
  H      125.659    -310.267     179.908
  H      119.101    -305.096     181.362
  H      125.327    -308.794     179.054
  H      120.819    -302.742     180.367
  H      119.723    -303.514     183.096
  H      120.977    -302.268     182.844
  P      117.143    -304.544     179.616
  C      116.068    -303.346     181.649
  O      116.487    -304.579     181.081
  O      117.519    -306.076     179.337
  O      116.277    -303.993     178.535
  H      117.281    -306.318     178.420
  H      115.654    -303.523     182.620
  H      115.327    -302.898     181.021
  H      116.908    -302.689     181.734

 6  7  8  9  10  11  12  13  14  15  26  29  33  34 0
 6-311+G(2d,p)
 ****
 36  38  39  40  41 0
 6-311+G(2d,p)
 ****
 1  2  3  4  5  16  17  18  19  20  21  22  23  24  25 0
 3-21G
 ****
 27  28  30  31  32  35  37  42  43  44  45  46  47 0
 3-21G
 ****
 48  49 0
 3-21G
 ****


