%nproc=1
%NoSave
%Mem=1900MB
#P OB98/GEN NMR

erre ene a

0 1
  C     -800.937      73.714    -647.745
  O     -801.033      74.990    -648.368
  P     -802.056      76.105    -647.820
  C     -804.587      76.517    -648.148
  O     -803.517      75.595    -648.256
  C     -805.844      75.975    -648.848
  O     -805.555      75.814    -650.258
  C     -806.307      74.592    -648.320
  O     -807.721      74.578    -648.383
  C     -805.708      73.626    -649.318
  O     -806.380      72.381    -649.330
  C     -805.830      74.434    -650.606
  N     -804.925      73.979    -651.648
  C     -805.309      72.852    -652.394
  O     -806.370      72.259    -652.150
  N     -804.484      72.401    -653.384
  C     -803.330      72.980    -653.593
  N     -802.573      72.540    -654.641
  C     -802.844      74.101    -652.770
  C     -803.680      74.554    -651.840
  O     -801.721      77.507    -648.230
  O     -802.070      75.880    -646.225
  H     -805.930      71.781    -649.961
  H     -801.339      76.338    -645.761
  H     -801.860      74.523    -652.951
  H     -803.418      75.381    -651.202
  H     -806.866      74.417    -650.980
  H     -804.648      73.429    -649.059
  H     -805.991      74.421    -647.275
  H     -806.643      76.706    -648.746
  H     -803.026      71.901    -655.276
  H     -804.297      77.456    -648.636
  H     -801.848      73.129    -655.055
  H     -804.792      76.749    -647.096
  P     -808.545      73.736    -647.263
  C     -808.992      71.211    -646.800
  O     -808.264      72.184    -647.533
  O     -810.057      73.895    -647.783
  O     -808.435      74.206    -645.860
  H     -810.653      73.796    -647.016
  H     -808.675      70.212    -647.115
  H     -810.063      71.313    -646.985
  H     -808.796      71.331    -645.722
  H     -800.206      73.122    -648.255
  H     -801.887      73.223    -647.789
  H     -800.646      73.837    -646.723

 3  4  5  6  7  8  9  10  11  12  13  23  27  28  29  30  32 0
 6-311+G(2d,p)
 ****
 34  35 0
 6-311+G(2d,p)
 ****
 1  2  14  15  16  17  18  19  20  21  22  24  25  26 0
 3-21G
 ****
 31  33  36  37  38  39  40  41  42  43  44  45  46 0
 3-21G
 ****


