%nproc=1
%NoSave
%Mem=1900MB
#P OB98/GEN NMR

erre ene a

0 1
  C     -590.654      26.007     368.144
  O     -591.105      24.670     368.231
  H     -591.417      26.606     367.641
  H     -589.726      26.056     367.566
  H     -590.488      26.417     369.145
  P     -590.131      23.624     368.965
  C     -591.792      23.054     370.883
  O     -590.544      23.637     370.512
  C     -591.550      21.807     371.730
  O     -590.793      22.160     372.913
  C     -592.825      21.152     372.238
  O     -593.464      20.368     371.242
  C     -592.284      20.328     373.397
  O     -591.747      19.078     372.951
  C     -591.168      21.222     373.950
  N     -590.892      21.282     379.043
  C     -590.302      20.495     378.120
  N     -590.420      20.553     376.779
  C     -591.218      21.570     376.414
  C     -591.882      22.458     377.242
  C     -591.695      22.290     378.624
  N     -592.315      23.074     379.565
  N     -592.649      23.337     376.503
  C     -592.436      22.993     375.246
  N     -591.580      21.933     375.140
  O     -588.719      24.377     368.941
  O     -590.056      22.277     368.332
  H     -591.444      18.608     373.753
  H     -588.173      24.018     368.216
  H     -589.662      19.710     378.512
  H     -592.886      23.478     374.382
  H     -590.266      20.647     374.212
  H     -593.074      20.112     374.122
  H     -593.512      21.909     372.630
  H     -590.945      21.101     371.145
  H     -592.350      22.778     369.978
  H     -592.374      23.798     371.445
  H     -592.190      22.854     380.542
  H     -593.005      23.751     379.270
  P     -595.067      20.308     371.257
  C     -595.395      22.375     369.699
  O     -595.602      21.794     370.979
  O     -595.428      20.059     372.801
  O     -595.657      19.264     370.380
  H     -596.208      19.483     372.868
  H     -595.810      23.361     369.684
  H     -595.873      21.775     368.953
  H     -594.346      22.427     369.496

 6  7  8  9  10  11  12  13  14  15  25  28  32  33  34  35 0
 6-311+G(2d,p)
 ****
 36  37  40 0
 6-311+G(2d,p)
 ****
 1  2  3  4  5  16  17  18  19  20  21  22  23  24 0
 3-21G
 ****
 26  27  29  30  31  38  39 41  42  43  44  45  46  47  48 0
 3-21G
 ****


