%nproc=1
%NoSave
%Mem=1900MB
#P OB98/GEN NMR

erre ene a

0 1
  C     -100.243    -217.764     122.121
  O     -100.147    -217.040     120.888
  P     -101.414    -216.743     119.953
  C     -100.300    -216.935     117.630
  O     -100.917    -216.074     118.583
  C      -99.689    -216.149     116.468
  O     -100.582    -215.102     116.032
  C      -98.374    -215.449     116.794
  O      -97.298    -216.374     116.829
  C      -98.299    -214.425     115.662
  O      -97.777    -215.016     114.459
  C      -99.780    -214.035     115.484
  N     -100.098    -212.755     116.104
  C     -101.036    -211.961     115.444
  O     -101.509    -212.317     114.362
  N     -101.400    -210.759     116.011
  C     -100.822    -210.361     117.099
  N     -101.223    -209.170     117.619
  C      -99.760    -211.131     117.781
  C      -99.455    -212.304     117.234
  O     -102.511    -215.990     120.634
  O     -101.936    -218.187     119.487
  H      -96.848    -215.247     114.642
  H     -102.903    -218.148     119.357
  H      -99.282    -210.746     118.672
  H      -98.694    -212.938     117.675
  H     -100.036    -213.982     114.421
  H      -97.650    -213.577     115.907
  H      -98.461    -214.922     117.751
  H      -99.551    -216.843     115.626
  H     -101.955    -208.670     117.134
  H     -101.069    -217.616     117.237
  H     -100.839    -208.771     118.464
  H      -99.530    -217.526     118.136
  P      -96.990    -217.176     118.181
  C      -94.561    -216.524     117.663
  O      -95.423    -217.517     118.191
  O      -97.889    -218.332     118.466
  O      -97.116    -216.060     119.326
  H      -97.433    -216.480     120.144
  H      -93.560    -216.672     118.081
  H      -94.909    -215.522     117.923
  H      -94.513    -216.626     116.574
  H      -99.274    -217.837     122.568
  H     -100.623    -218.746     121.929
  H     -100.904    -217.249     122.786

 3  4  5  6  7  8  9  10  11  12  13  23  27  28  29  30  32 0
 6-311+G(2d,p)
 ****
 34  35 0
 6-311+G(2d,p)
 ****
 1  2  14  15  16  17  18  19  20  21  22  24  25  26 0
 3-21G
 ****
 31  33  36  37  38  39  40  41  42  43  44  45  46 0
 3-21G
 ****


