%nproc=1
%NoSave
%Mem=1900MB
#P OB98/GEN NMR

erre ene a

0 1
  C      -21.919     489.154     184.497
  O      -22.641     489.834     183.493
  P      -21.885     490.451     182.221
  C      -21.094     492.508     183.552
  O      -20.698     491.362     182.804
  C      -20.190     493.691     183.223
  O      -19.056     493.747     184.124
  C      -19.569     493.630     181.835
  O      -20.433     493.734     180.728
  C      -18.465     494.674     181.961
  O      -18.977     495.993     181.778
  C      -18.007     494.464     183.426
  N      -16.723     493.763     183.504
  C      -15.609     494.479     183.071
  O      -15.666     495.635     182.644
  N      -14.422     493.809     183.113
  C      -14.244     492.509     183.491
  O      -13.150     491.957     183.456
  C      -15.456     491.795     183.918
  C      -16.625     492.448     183.901
  O      -22.761     491.131     181.229
  O      -21.078     489.193     181.624
  H      -18.232     496.617     181.888
  H      -20.443     488.791     182.243
  H      -13.600     494.305     182.793
  H      -15.348     490.770     184.233
  H      -17.534     491.945     184.214
  H      -17.899     495.430     183.931
  H      -17.685     494.527     181.209
  H      -19.067     492.654     181.728
  H      -20.764     494.615     183.367
  H      -21.012     492.284     184.618
  H      -22.143     492.740     183.340
  P      -20.296     492.825     179.411
  C      -19.238     494.434     177.678
  O      -19.044     493.355     178.565
  O      -21.558     492.528     178.673
  O      -19.721     491.454     180.031
  H      -20.040     490.705     179.495
  H      -18.303     494.627     177.151
  H      -19.526     495.331     178.228
  H      -20.007     494.190     176.941
  H      -22.594     488.818     185.256
  H      -21.198     489.816     184.928
  H      -21.418     488.312     184.068

 3  4  5  6  7  8  9  10  11  12  13  23  28  29  30  31  32 0
 6-311+G(2d,p)
 ****
 33  34 0
 6-311+G(2d,p)
 ****
 1  2  14  15  16  17  18  19  20  21  22  24  25  26  27 0
 3-21G
 ****
 35  36  37  38  39  40  41  42  43  44  45 0
 3-21G
 ****


