%nproc=1
%NoSave
%Mem=1900MB
#P OB98/GEN NMR

erre ene a

0 1
  C     -193.977     538.053     517.094
  O     -193.514     537.183     516.083
  H     -194.914     538.508     516.762
  H     -193.242     538.847     517.276
  H     -194.164     537.502     518.020
  P     -192.144     536.393     516.386
  C     -189.988     536.891     517.745
  O     -191.238     537.376     517.272
  C     -188.990     538.043     517.850
  O     -189.348     538.902     518.956
  C     -187.567     537.608     518.117
  O     -186.916     537.132     516.951
  C     -186.957     538.895     518.663
  O     -186.544     539.770     517.612
  C     -188.129     539.509     519.454
  N     -185.243     540.430     523.568
  C     -185.142     540.865     522.277
  N     -185.973     540.575     521.246
  C     -186.979     539.785     521.645
  C     -187.199     539.266     522.911
  C     -186.269     539.631     523.903
  N     -186.342     539.170     525.208
  N     -188.313     538.460     522.931
  C     -188.772     538.481     521.686
  N     -188.005     539.280     520.885
  O     -191.417     536.374     514.963
  O     -192.324     535.014     516.935
  H     -185.820     539.311     517.137
  H     -191.556     535.500     514.534
  H     -184.313     541.523     522.059
  H     -189.643     537.946     521.329
  H     -188.214     540.591     519.292
  H     -186.082     538.679     519.276
  H     -187.546     536.849     518.907
  H     -189.048     538.646     516.930
  H     -189.600     536.140     517.048
  H     -190.134     536.433     518.726
  H     -185.606     539.408     525.841
  H     -187.042     538.486     525.439
  P     -185.792     536.004     517.115
  C     -183.521     535.786     518.380
  O     -184.643     536.594     518.048
  O     -185.113     535.908     515.688
  O     -186.319     534.684     517.582
  H     -184.868     534.973     515.479
  H     -182.856     536.340     519.009
  H     -183.010     535.500     517.485
  H     -183.853     534.910     518.896

 6  7  8  9  10  11  12  13  14  15  25  28  32  33  34  35 0
 6-311+G(2d,p)
 ****
 36  37  40 0
 6-311+G(2d,p)
 ****
 1  2  3  4  5  16  17  18  19  20  21  22  23  24 0
 3-21G
 ****
 26  27  29  30  31  38  39 41  42  43  44  45  46  47  48 0
 3-21G
 ****


