%nproc=1
%NoSave
%Mem=1900MB
#P OB98/GEN NMR

erre ene a

0 1
  C       28.027     -87.958     -24.254
  O       26.948     -88.776     -23.848
  H       27.661     -86.936     -24.382
  H       28.427     -88.307     -25.209
  H       28.817     -87.954     -23.499
  P       27.243     -90.297     -23.441
  C       26.241     -92.016     -21.799
  O       26.207     -90.678     -22.280
  C       25.149     -92.217     -20.751
  O       25.420     -91.407     -19.586
  C       23.760     -91.809     -21.224
  O       23.208     -92.782     -22.090
  C       23.039     -91.657     -19.895
  O       22.616     -92.933     -19.389
  C       24.145     -91.048     -19.006
  N       24.021     -89.599     -18.857
  C       23.485     -89.142     -17.657
  O       23.095     -89.891     -16.763
  N       23.383     -87.782     -17.529
  C       23.651     -86.865     -18.503
  O       23.457     -85.661     -18.368
  C       24.191     -87.406     -19.758
  C       24.350     -88.725     -19.875
  O       28.668     -90.624     -23.148
  O       26.698     -91.134     -24.694
  H       22.097     -92.750     -18.582
  H       27.452     -91.451     -25.225
  H       22.985     -87.432     -16.673
  H       24.429     -86.708     -20.549
  H       24.741     -89.144     -20.795
  H       24.119     -91.497     -18.005
  H       22.148     -91.034     -19.977
  H       23.802     -90.832     -21.717
  H       25.161     -93.270     -20.439
  H       27.220     -92.202     -21.345
  H       26.103     -92.701     -22.642
  P       22.356     -92.324     -23.364
  C       21.805     -93.240     -25.701
  O       22.580     -93.413     -24.519
  O       22.548     -90.906     -23.786
  O       20.839     -92.581     -22.919
  H       20.350     -91.737     -22.936
  H       22.036     -94.020     -26.396
  H       22.032     -92.291     -26.140
  H       20.765     -93.279     -25.454

 6  7  8  9  10  11  12  13  14  15  16  26  31  32  33  34  35 0
 6-311+G(2d,p)
 ****
 36  37 0
 6-311+G(2d,p)
 ****
 1  2  3  4  5  17  18  19  20  21  22  23  24  25 0
 3-21G
 ****
 27  28  29  30  38  39  40  41  42  43  44  45 0
 3-21G
 ****


