%nproc=1
%NoSave
%Mem=1900MB
#P OB98/GEN NMR

erre ene a

0 1
  C      281.195    -662.999      -1.486
  O      281.511    -661.859      -0.704
  P      282.178    -660.605      -1.453
  C      284.564    -660.072      -2.341
  O      283.696    -661.033      -1.736
  C      285.972    -660.179      -1.747
  O      286.538    -661.467      -2.045
  C      286.956    -659.161      -2.304
  O      286.834    -657.892      -1.670
  C      288.280    -659.810      -1.932
  O      288.574    -659.581      -0.545
  C      287.972    -661.292      -2.162
  N      291.824    -663.403      -4.788
  C      291.736    -662.985      -3.515
  N      290.677    -662.425      -2.897
  C      289.643    -662.273      -3.750
  C      289.614    -662.615      -5.092
  C      290.759    -663.223      -5.618
  N      290.846    -663.681      -6.910
  N      288.381    -662.305      -5.640
  C      287.689    -661.797      -4.635
  N      288.401    -661.766      -3.473
  O      282.312    -659.521      -0.283
  O      281.415    -660.083      -2.621
  H      288.757    -658.626      -0.450
  H      282.359    -658.618      -0.666
  H      292.626    -663.128      -2.914
  H      286.665    -661.449      -4.712
  H      288.443    -661.944      -1.418
  H      289.121    -659.421      -2.509
  H      286.883    -659.077      -3.391
  H      285.878    -660.079      -0.661
  H      284.164    -659.074      -2.157
  H      291.635    -664.258      -7.153
  H      289.989    -663.723      -7.453
  H      284.588    -660.250      -3.425
  P      286.938    -656.594      -2.614
  C      288.899    -655.451      -3.891
  O      288.485    -656.472      -2.987
  O      286.687    -655.389      -1.593
  O      285.978    -656.595      -3.752
  H      286.337    -654.610      -2.068
  H      289.980    -655.312      -3.788
  H      288.397    -654.501      -3.652
  H      288.661    -655.750      -4.907
  H      280.760    -663.751      -0.861
  H      282.087    -663.381      -1.936
  H      280.499    -662.725      -2.251

 3  4  5  6  7  8  9  10  11  12  22  25  29  30  31  32 0
 6-311+G(2d,p)
 ****
 33  36  37 0
 6-311+G(2d,p)
 ****
 1  2  13  14  15  16  17  18  19  20  21  23  24  26 0
 3-21G
 ****
 27  28  34  35  38  39  40  41  42  43  44  45  46  47  48 0
 3-21G
 ****


