%nproc=1
%NoSave
%Mem=1900MB
#P OB98/GEN NMR

erre ene a

0 1
  C     -504.790    -781.700     880.203
  O     -505.576    -782.497     879.344
  H     -503.891    -782.262     880.475
  H     -505.340    -781.462     881.117
  H     -504.485    -780.778     879.700
  P     -506.965    -781.895     878.803
  C     -505.987    -781.304     876.474
  O     -506.891    -782.118     877.210
  C     -505.370    -782.103     875.334
  O     -504.483    -783.138     875.827
  C     -506.366    -782.853     874.458
  O     -507.109    -782.016     873.587
  C     -505.428    -783.779     873.710
  O     -504.728    -783.037     872.691
  C     -504.473    -784.209     874.850
  N     -504.864    -785.479     875.463
  C     -504.843    -786.606     874.637
  O     -504.526    -786.517     873.454
  N     -505.231    -787.822     875.165
  C     -505.621    -787.891     876.400
  N     -505.991    -789.114     876.873
  C     -505.672    -786.722     877.304
  C     -505.280    -785.564     876.777
  O     -507.295    -780.505     879.245
  O     -508.066    -782.976     879.229
  H     -504.269    -783.689     872.132
  H     -508.946    -782.649     878.920
  H     -506.032    -786.824     878.314
  H     -505.300    -784.650     877.370
  H     -503.444    -784.301     874.477
  H     -505.937    -784.605     873.214
  H     -507.043    -783.467     875.073
  H     -504.755    -781.418     874.742
  H     -505.947    -789.895     876.231
  H     -505.213    -780.943     877.163
  H     -506.385    -789.245     877.798
  H     -506.519    -780.448     876.051
  P     -508.519    -782.576     873.055
  C     -509.968    -781.488     874.943
  O     -509.634    -781.545     873.567
  O     -508.753    -783.881     873.960
  O     -508.572    -782.875     871.592
  H     -508.498    -784.688     873.477
  H     -510.725    -780.748     875.096
  H     -509.098    -781.231     875.511
  H     -510.333    -782.442     875.261

 6  7  8  9  10  11  12  13  14  15  16  26  30  31  32  33  35 0
 6-311+G(2d,p)
 ****
 37  38 0
 6-311+G(2d,p)
 ****
 1  2  3  4  5  17  18  19  20  21  22  23  24  25 0
 3-21G
 ****
 27  28  29  34  36  39  40  41  42  43  44  45  46 0
 3-21G
 ****


