%nproc=1
%NoSave
%Mem=1900MB
#P OB98/GEN NMR

erre ene a

0 1
  C      280.974     566.099      34.710
  O      280.239     567.121      35.374
  P      279.146     567.927      34.534
  C      280.815     569.922      34.477
  O      279.483     569.489      34.715
  C      281.040     571.338      35.035
  O      280.217     572.265      34.271
  C      280.694     571.506      36.512
  O      281.625     572.447      37.044
  C      279.290     572.098      36.436
  O      278.870     572.712      37.640
  C      279.449     573.010      35.229
  N      275.318     575.994      35.869
  C      276.472     575.865      36.581
  N      277.527     575.056      36.347
  C      277.308     574.326      35.234
  C      276.200     574.314      34.427
  C      275.156     575.211      34.774
  N      273.998     575.322      34.060
  N      276.345     573.418      33.389
  C      277.533     572.884      33.586
  N      278.172     573.411      34.677
  O      277.805     567.742      35.382
  O      278.972     567.473      33.113
  H      278.735     572.050      38.333
  H      277.039     567.624      34.807
  H      276.538     576.504      37.472
  H      277.959     572.106      32.973
  H      279.996     573.932      35.468
  H      278.580     571.288      36.229
  H      280.765     570.572      37.082
  H      282.091     571.615      34.844
  H      280.997     569.935      33.390
  H      273.235     575.825      34.503
  H      273.798     574.599      33.363
  H      281.518     569.215      34.924
  P      282.806     571.945      38.006
  C      281.434     573.001      39.892
  O      282.703     572.907      39.291
  O      284.088     572.532      37.253
  O      282.843     570.465      38.245
  H      283.992     573.485      37.063
  H      281.519     573.605      40.817
  H      281.047     572.003      40.171
  H      280.727     573.505      39.229
  H      281.663     565.652      35.396
  H      281.513     566.523      33.889
  H      280.299     565.353      34.346

 3  4  5  6  7  8  9  10  11  12  22  25  29  30  31  32 0
 6-311+G(2d,p)
 ****
 33  36  37 0
 6-311+G(2d,p)
 ****
 1  2  13  14  15  16  17  18  19  20  21  23  24  26 0
 3-21G
 ****
 27  28  34  35  38  39  40  41  42  43  44  45  46  47  48 0
 3-21G
 ****


