%nproc=1
%NoSave
%Mem=1900MB
#P OB98/GEN NMR

erre ene a

0 1
  C      -48.316     130.291    -110.798
  O      -47.462     131.211    -110.149
  H      -48.138     129.295    -110.385
  H      -48.093     130.273    -111.867
  H      -49.366     130.555    -110.639
  P      -47.783     132.770    -110.360
  C      -47.998     134.332    -112.420
  O      -47.910     132.998    -111.944
  C      -48.788     134.376    -113.724
  O      -50.165     134.012    -113.493
  C      -48.814     135.746    -114.398
  O      -47.647     135.966    -115.180
  C      -50.043     135.603    -115.280
  O      -49.717     134.810    -116.442
  C      -51.000     134.823    -114.368
  N      -55.762     136.401    -113.621
  C      -55.243     135.590    -114.611
  N      -56.115     135.140    -115.538
  N      -53.981     135.250    -114.689
  C      -53.221     135.793    -113.709
  C      -53.618     136.616    -112.680
  C      -55.017     136.969    -112.596
  O      -55.528     137.678    -111.733
  N      -52.562     136.968    -111.880
  C      -51.525     136.376    -112.437
  N      -51.871     135.652    -113.552
  O      -46.391     133.469    -109.983
  O      -48.902     133.306    -109.531
  H      -50.559     134.573    -116.871
  H      -46.462     133.848    -109.086
  H      -56.737     136.639    -113.614
  H      -50.509     136.432    -112.072
  H      -51.646     134.141    -114.930
  H      -50.413     136.562    -115.645
  H      -57.094     135.380    -115.550
  H      -48.973     136.552    -113.672
  H      -55.757     134.539    -116.271
  H      -48.362     133.623    -114.400
  H      -46.987     134.717    -112.592
  H      -48.493     134.948    -111.663
  P      -47.362     137.450    -115.714
  C      -48.244     138.907    -117.670
  O      -48.148     137.606    -117.107
  O      -45.825     137.373    -116.157
  O      -47.587     138.538    -114.722
  H      -45.279     137.917    -115.558
  H      -48.790     138.859    -118.589
  H      -47.262     139.288    -117.858
  H      -48.753     139.555    -116.987

 6  7  8  9  10  11  12  13  14  15  26  29  33  34 0
 6-311+G(2d,p)
 ****
 36  38  39  40  41 0
 6-311+G(2d,p)
 ****
 1  2  3  4  5  16  17  18  19  20  21  22  23  24  25 0
 3-21G
 ****
 27  28  30  31  32  35  37  42  43  44  45  46  47 0
 3-21G
 ****
 48  49 0
 3-21G
 ****


