%nproc=1
%NoSave
%Mem=1900MB
#P OB98/GEN NMR

erre ene a

0 1
  C      129.135      84.494     197.354
  O      128.231      84.985     198.350
  P      128.406      84.427     199.846
  C      127.424      82.356     201.121
  O      127.432      83.157     199.946
  C      126.163      81.495     201.163
  O      124.977      82.326     201.139
  C      126.017      80.550     199.978
  O      126.899      79.443     200.086
  C      124.535      80.198     200.070
  O      124.322      79.184     201.066
  C      123.919      81.535     200.544
  N      123.251      82.265     199.469
  C      122.207      81.591     198.840
  O      121.870      80.444     199.137
  N      121.571      82.276     197.839
  C      121.892      83.530     197.397
  O      121.280      84.098     196.499
  C      123.037      84.169     198.066
  C      123.654      83.519     199.056
  O      127.669      85.564     200.689
  O      129.830      84.186     200.214
  H      126.899      85.946     200.228
  H      123.371      79.214     201.294
  H      120.806      81.811     197.379
  H      123.333      85.155     197.724
  H      124.500      83.975     199.564
  H      123.188      81.353     201.337
  H      124.134      79.816     199.124
  H      126.212      81.088     199.045
  H      126.168      80.927     202.102
  H      127.450      82.996     202.008
  H      128.326      81.737     201.132
  P      128.199      79.457     199.138
  C      128.564      79.567     196.549
  O      127.660      79.602     197.634
  O      128.672      77.928     199.238
  O      129.234      80.452     199.552
  H      127.934      77.297     199.166
  H      128.005      79.329     195.639
  H      129.337      78.809     196.693
  H      129.028      80.550     196.433
  H      128.906      84.946     196.411
  H      129.035      83.432     197.274
  H      130.139      84.738     197.632

 3  4  5  6  7  8  9  10  11  12  13  24  28  29  30  31  32 0
 6-311+G(2d,p)
 ****
 33  34 0
 6-311+G(2d,p)
 ****
 1  2  14  15  16  17  18  19  20  21  22  23  25  26  27 0
 3-21G
 ****
 35  36  37  38  39  40  41  42  43  44  45 0
 3-21G
 ****


