%nproc=1
%NoSave
%Mem=1900MB
#P OB98/GEN NMR

erre ene a

0 1
  C       88.478    -159.392     146.319
  O       89.503    -160.357     146.450
  H       87.929    -159.581     145.391
  H       88.910    -158.388     146.273
  H       87.781    -159.458     147.161
  P       90.360    -160.332     147.806
  C       92.555    -159.130     148.534
  O       91.477    -159.192     147.613
  C       93.151    -157.719     148.545
  O       93.655    -157.417     147.214
  C       92.127    -156.631     148.903
  O       92.776    -155.619     149.679
  C       91.729    -156.067     147.548
  O       91.216    -154.741     147.608
  C       93.054    -156.174     146.790
  N       92.875    -156.155     145.335
  C       92.687    -154.918     144.728
  O       92.735    -153.835     145.310
  N       92.427    -154.955     143.379
  C       92.320    -156.077     142.608
  O       92.065    -156.042     141.410
  C       92.520    -157.356     143.308
  C       92.782    -157.336     144.620
  O       91.206    -161.687     147.735
  O       89.572    -160.211     149.068
  H       90.718    -162.421     148.160
  H       90.547    -154.710     148.322
  H       92.291    -154.064     142.920
  H       92.433    -158.264     142.732
  H       92.918    -158.261     145.169
  H       93.735    -155.365     147.088
  H       90.962    -156.704     147.085
  H       91.264    -157.023     149.449
  H       94.008    -157.697     149.229
  H       93.329    -159.843     148.231
  H       92.193    -159.397     149.535
  P       92.099    -155.216     151.083
  C       90.032    -153.705     151.632
  O       91.121    -153.979     150.761
  O       93.333    -154.559     151.856
  O       91.463    -156.378     151.775
  H       93.924    -154.044     151.275
  H       89.491    -152.856     151.270
  H       90.404    -153.499     152.614
  H       89.381    -154.554     151.668

 6  7  8  9  10  11  12  13  14  15  16  27  31  32  33  34  35 0
 6-311+G(2d,p)
 ****
 36  37 0
 6-311+G(2d,p)
 ****
 1  2  3  4  5  17  18  19  20  21  22  23  24  25 0
 3-21G
 ****
 26  28  29  30  38  39  40  41  42  43  44  45 0
 3-21G
 ****


