%nproc=1
%NoSave
%Mem=1900MB
#P OB98/GEN NMR

erre ene a

0 1
  C      172.541    -162.373     284.091
  O      173.901    -162.774     284.129
  P      174.228    -164.269     284.600
  C      175.813    -163.695     286.584
  O      175.673    -164.248     285.283
  C      177.233    -163.944     287.103
  O      177.531    -165.358     287.091
  C      178.317    -163.293     286.257
  O      178.428    -161.904     286.539
  C      179.545    -164.097     286.653
  O      180.116    -163.593     287.873
  C      178.949    -165.504     286.870
  N      179.236    -166.408     285.765
  C      179.328    -167.756     286.093
  O      179.205    -168.178     287.245
  N      179.611    -168.609     285.057
  C      179.860    -168.244     283.764
  O      180.163    -169.051     282.890
  C      179.773    -166.801     283.479
  C      179.481    -165.963     284.481
  O      174.468    -165.058     283.224
  O      173.160    -164.907     285.424
  H      180.160    -162.623     287.783
  H      174.131    -165.971     283.302
  H      179.658    -169.591     285.269
  H      179.968    -166.476     282.467
  H      179.428    -164.897     284.294
  H      179.354    -165.945     287.791
  H      180.327    -164.053     285.892
  H      178.108    -163.456     285.190
  H      177.289    -163.592     288.142
  H      175.086    -164.162     287.258
  H      175.604    -162.622     286.543
  P      178.398    -160.900     285.287
  C      180.936    -160.350     285.002
  O      179.668    -159.949     285.482
  O      177.130    -159.994     285.662
  O      178.287    -161.605     283.976
  H      177.034    -159.882     286.623
  H      180.852    -160.921     284.072
  H      181.426    -160.968     285.761
  H      181.541    -159.460     284.823
  H      172.478    -161.357     283.760
  H      172.117    -162.456     285.070
  H      172.002    -163.003     283.414

 3  4  5  6  7  8  9  10  11  12  13  23  28  29  30  31  32 0
 6-311+G(2d,p)
 ****
 33  34 0
 6-311+G(2d,p)
 ****
 1  2  14  15  16  17  18  19  20  21  22  24  25  26 0
 3-21G
 ****
 27  35  36  37  38  39  40  41  42  43  44  45 0
 3-21G
 ****


