%nproc=1
%NoSave
%Mem=1900MB
#P OB98/GEN NMR

erre ene a

0 1
  C      133.634      92.844      89.062
  O      133.625      94.056      89.834
  P      132.259      94.902      89.943
  C      131.573      94.232      92.379
  O      131.998      95.253      91.486
  C      131.157      94.841      93.720
  O      130.150      94.023      94.359
  C      132.281      94.957      94.737
  O      133.148      96.044      94.451
  C      131.503      95.127      96.033
  O      131.103      96.497      96.217
  C      130.271      94.231      95.785
  N      130.345      92.963      96.506
  C      129.689      92.909      97.731
  O      129.123      93.880      98.236
  N      129.738      91.705      98.381
  C      130.419      90.598      97.966
  O      130.442      89.550      98.608
  C      131.160      90.740      96.706
  C      131.096      91.900      96.049
  O      131.150      93.779      89.666
  O      132.120      96.033      88.979
  H      130.642      96.541      97.078
  H      130.357      94.194      89.275
  H      129.247      91.637      99.259
  H      131.734      89.889      96.357
  H      131.636      92.021      95.111
  H      129.357      94.756      96.087
  H      132.084      94.843      96.913
  H      132.844      94.018      94.777
  H      130.713      95.831      93.521
  H      132.402      93.532      92.545
  H      130.739      93.687      91.925
  P      134.662      95.677      94.055
  C      134.212      95.024      91.566
  O      134.761      95.949      92.479
  O      134.638      94.082      94.211
  O      135.670      96.374      94.910
  H      133.777      93.707      93.970
  H      133.316      94.543      91.971
  H      134.959      94.262      91.330
  H      133.944      95.553      90.650
  H      134.611      92.409      89.093
  H      133.374      93.065      88.048
  H      132.924      92.156      89.471

 3  4  5  6  7  8  9  10  11  12  13  23  28  29  30  31  32 0
 6-311+G(2d,p)
 ****
 33  34 0
 6-311+G(2d,p)
 ****
 1  2  14  15  16  17  18  19  20  21  22  24  25  26 0
 3-21G
 ****
 27  35  36  37  38  39  40  41  42  43  44  45 0
 3-21G
 ****


