%nproc=1
%NoSave
%Mem=1900MB
#P OB98/GEN NMR

erre ene a

0 1
  C      112.333     -63.479      10.662
  O      112.074     -63.323       9.283
  H      111.621     -62.867      11.222
  H      113.345     -63.141      10.898
  H      112.210     -64.523      10.964
  P      112.892     -64.218       8.235
  C      114.678     -62.453       7.654
  O      113.565     -63.208       7.188
  C      114.998     -61.336       6.665
  O      115.171     -61.877       5.337
  C      113.902     -60.283       6.546
  O      113.912     -59.419       7.663
  C      114.282     -59.637       5.223
  O      115.365     -58.709       5.392
  C      114.743     -60.864       4.400
  N      113.701     -61.375       3.508
  C      113.561     -60.721       2.289
  O      114.255     -59.763       1.954
  N      112.556     -61.179       1.479
  C      111.645     -62.140       1.806
  O      110.634     -62.365       1.148
  C      111.888     -62.847       3.072
  C      112.879     -62.427       3.861
  O      112.138     -65.352       7.624
  O      114.146     -64.739       9.085
  H      113.984     -65.660       9.365
  H      115.032     -58.001       5.978
  H      112.414     -60.680       0.612
  H      111.225     -63.661       3.337
  H      113.058     -62.913       4.814
  H      115.617     -60.608       3.788
  H      113.453     -59.083       4.777
  H      112.926     -60.768       6.436
  H      115.947     -60.875       6.967
  H      115.540     -63.122       7.740
  H      114.444     -62.044       8.642
  P      113.103     -59.779       8.996
  C      112.023     -57.459       8.909
  O      112.700     -58.409       9.720
  O      113.765     -60.778       9.887
  O      111.695     -60.335       8.465
  H      111.526     -61.210       8.864
  H      111.803     -56.587       9.489
  H      111.111     -57.885       8.546
  H      112.645     -57.189       8.081

 6  7  8  9  10  11  12  13  14  15  16  27  31  32  33  34  35 0
 6-311+G(2d,p)
 ****
 36  37 0
 6-311+G(2d,p)
 ****
 1  2  3  4  5  17  18  19  20  21  22  23  24  25 0
 3-21G
 ****
 26  28  29  30  38  39  40  41  42  43  44  45 0
 3-21G
 ****


