%nproc=1
%NoSave
%Mem=1900MB
#P OB98/GEN NMR

erre ene a

0 1
  C      500.124     886.758     822.782
  O      499.217     887.427     823.650
  P      499.461     888.995     823.905
  C      498.266     889.628     821.689
  O      499.467     889.680     822.447
  C      497.772     891.025     821.368
  O      497.187     891.615     822.552
  C      498.854     891.999     820.920
  O      499.177     891.843     819.549
  C      498.177     893.341     821.181
  O      497.310     893.660     820.080
  C      497.356     893.051     822.451
  N      498.584     897.147     825.167
  C      497.927     897.053     823.953
  N      497.516     898.211     823.407
  N      497.696     895.916     823.339
  C      498.130     894.841     824.035
  C      498.798     894.805     825.236
  C      499.091     896.067     825.881
  O      499.729     896.210     826.926
  N      499.065     893.516     825.622
  C      498.531     892.770     824.678
  N      497.974     893.532     823.673
  O      500.985     889.065     824.347
  O      498.555     889.613     824.918
  H      497.836     893.577     819.263
  H      501.148     889.854     824.899
  H      498.718     898.040     825.610
  H      498.525     891.687     824.677
  H      496.348     893.491     822.375
  H      498.888     894.164     821.277
  H      497.552     899.098     823.885
  H      499.740     891.908     821.557
  H      496.992     898.168     822.539
  H      496.985     890.957     820.605
  H      497.488     889.098     822.256
  H      498.453     889.070     820.750
  P      500.622     892.380     819.088
  C      502.331     890.456     819.485
  O      501.677     891.600     820.017
  O      500.658     893.879     819.643
  O      500.863     892.320     817.623
  H      501.263     894.428     819.109
  H      502.544     890.568     818.420
  H      501.689     889.568     819.648
  H      503.267     890.304     820.023
  H      499.847     885.728     822.702
  H      501.116     886.831     823.177
  H      500.092     887.212     821.814

 3  4  5  6  7  8  9  10  11  12  23  26  30  31  33  0
 6-311+G(2d,p)
 ****
 35  36  37  38 0
 6-311+G(2d,p)
 ****
 1  2  13  14  15  16  17  18  19  20  21  22  24  25  27  28  29 0
 3-21G
 ****
 32  34  39  40  41  42  43  44  45  46  47  48  49 0
 3-21G
 ****


