%nproc=1
%NoSave
%Mem=1900MB
#P OB98/GEN NMR

erre ene a

0 1
  C     1490.819    -896.870     496.989
  O     1490.699    -896.350     495.676
  P     1491.911    -895.630     494.963
  C     1490.781    -896.030     492.618
  O     1491.451    -895.140     493.500
  C     1489.716    -895.230     491.865
  O     1490.312    -894.020     491.271
  C     1489.155    -896.020     490.693
  O     1487.927    -896.700     491.086
  C     1488.915    -894.970     489.612
  O     1487.695    -894.280     489.844
  C     1490.148    -894.060     489.848
  N     1491.426    -894.440     489.233
  C     1491.427    -895.050     487.973
  O     1490.439    -895.260     487.300
  N     1492.672    -895.410     487.523
  C     1493.876    -895.200     488.151
  O     1494.937    -895.740     487.848
  C     1493.804    -894.330     489.317
  C     1492.611    -894.000     489.823
  O     1492.934    -896.830     494.615
  O     1492.582    -894.540     495.756
  H     1486.986    -894.920     489.805
  H     1493.631    -896.880     495.297
  H     1492.682    -895.980     486.659
  H     1494.740    -894.010     489.790
  H     1492.541    -893.390     490.709
  H     1489.907    -893.020     489.502
  H     1488.815    -895.430     488.624
  H     1489.873    -896.770     490.328
  H     1488.933    -894.930     492.531
  H     1490.325    -896.840     493.159
  H     1491.495    -896.470     491.911
  P     1487.463    -898.000     490.340
  C     1486.604    -899.080     492.506
  O     1486.272    -898.590     491.208
  O     1488.536    -898.980     489.978
  O     1486.731    -897.430     489.026
  H     1487.326    -897.430     488.262
  H     1485.733    -899.270     493.075
  H     1487.236    -898.320     493.055
  H     1487.171    -900.000     492.412
  H     1489.891    -897.314     497.283
  H     1491.066    -896.078     497.665
  H     1491.591    -897.611     497.010

 3  4  5  6  7  8  9  10  11  12  13  23  28  29  30  31  32 0
 6-311+G(2d,p)
 ****
 33  34 0
 6-311+G(2d,p)
 ****
 1  2  14  15  16  17  18  19  20  21  22  24  25  26  27 0
 3-21G
 ****
 35  36  37  38  39  40  41  42  43  44  45 0
 3-21G
 ****


