%nproc=1
%NoSave
%Mem=1900MB
#P OB98/GEN NMR

erre ene a

0 1
  C      507.173    -376.377     -43.574
  O      506.454    -377.288     -42.759
  P      505.359    -376.702     -41.754
  C      505.496    -375.499     -39.437
  O      506.165    -375.865     -40.632
  C      506.516    -375.070     -38.367
  O      507.205    -376.246     -37.875
  C      507.589    -374.089     -38.859
  O      507.909    -373.236     -37.753
  C      508.755    -374.992     -39.178
  O      510.010    -374.297     -39.201
  C      508.619    -376.028     -38.079
  N      513.006    -378.577     -38.151
  C      512.746    -377.256     -37.811
  N      513.807    -376.532     -37.378
  N      511.572    -376.689     -37.893
  C      510.604    -377.544     -38.327
  C      510.736    -378.862     -38.733
  C      512.040    -379.472     -38.599
  O      512.297    -380.659     -38.807
  N      509.552    -379.368     -39.189
  C      508.688    -378.386     -38.997
  N      509.266    -377.281     -38.429
  O      504.857    -377.992     -40.962
  O      504.232    -375.932     -42.380
  H      509.979    -373.659     -39.927
  H      504.049    -378.369     -41.380
  H      513.932    -378.958     -38.053
  H      507.633    -378.422     -39.234
  H      509.049    -375.697     -37.118
  H      508.616    -375.446     -40.171
  H      514.740    -376.911     -37.269
  H      507.268    -373.478     -39.721
  H      513.642    -375.566     -37.095
  H      505.958    -374.639     -37.523
  H      504.942    -376.371     -39.055
  H      504.774    -374.701     -39.642
  P      508.456    -371.757     -38.078
  C      510.624    -370.720     -39.023
  O      509.949    -371.893     -38.630
  O      508.664    -371.129     -36.612
  O      507.524    -370.912     -38.892
  H      508.491    -370.166     -36.636
  H      511.712    -370.901     -38.997
  H      510.402    -369.870     -38.369
  H      510.345    -370.466     -40.052
  H      507.864    -376.916     -44.188
  H      507.709    -375.689     -42.953
  H      506.489    -375.838     -44.196

 3  4  5  6  7  8  9  10  11  12  23  26  30  31 0
 6-311+G(2d,p)
 ****
 33  35  36  37  38 0
 6-311+G(2d,p)
 ****
 1  2  13  14  15  16  17  18  19  20  21  22  24  25 0
 3-21G
 ****
 27  28  29  32  34  39  40  41  42  43  44  45  46  47  48  49 0
 3-21G
 ****


