%nproc=1
%NoSave
%Mem=1900MB
#P OB98/GEN NMR

erre ene a

0 1
  C      121.976    -227.482    -421.059
  O      123.217    -226.863    -420.773
  H      121.230    -227.122    -420.344
  H      122.070    -228.567    -420.957
  H      121.648    -227.230    -422.071
  P      124.386    -227.076    -421.850
  C      125.753    -228.867    -420.504
  O      124.957    -228.568    -421.644
  C      127.233    -228.834    -420.876
  O      128.056    -228.758    -419.695
  C      127.729    -230.090    -421.580
  O      127.271    -230.182    -422.913
  C      129.234    -229.896    -421.471
  O      129.742    -229.065    -422.520
  C      129.380    -229.195    -420.096
  N      129.996    -230.064    -419.110
  C      131.364    -230.306    -419.300
  O      131.959    -229.777    -420.242
  N      132.005    -231.165    -418.444
  C      131.336    -231.754    -417.497
  N      132.025    -232.622    -416.703
  C      129.895    -231.527    -417.267
  C      129.292    -230.678    -418.100
  O      125.558    -226.152    -421.275
  O      124.001    -226.772    -423.258
  H      129.618    -229.566    -423.355
  H      125.736    -226.291    -420.331
  H      129.385    -232.031    -416.458
  H      128.238    -230.455    -418.001
  H      129.993    -228.288    -420.189
  H      129.770    -230.848    -421.536
  H      127.454    -230.981    -420.999
  H      127.413    -227.938    -421.486
  H      132.999    -232.786    -416.937
  H      125.486    -229.847    -420.096
  H      131.594    -233.188    -415.991
  H      125.532    -228.117    -419.740
  P      126.788    -231.578    -423.532
  C      129.091    -231.815    -424.667
  O      128.117    -232.435    -423.833
  O      125.851    -231.478    -424.686
  O      126.181    -232.348    -422.263
  H      126.808    -232.494    -421.528
  H      129.923    -232.475    -424.795
  H      129.424    -230.906    -424.212
  H      128.658    -231.598    -425.621

 6  7  8  9  10  11  12  13  14  15  16  26  30  31  32  33  35 0
 6-311+G(2d,p)
 ****
 37  38 0
 6-311+G(2d,p)
 ****
 1  2  3  4  5  17  18  19  20  21  22  23  24  25 0
 3-21G
 ****
 27  28  29  34  36  39  40  41  42  43  44  45  46 0
 3-21G
 ****


