%nproc=1
%NoSave
%Mem=1900MB
#P OB98/GEN NMR

erre ene a

0 1
  C      -31.053    -105.822      75.990
  O      -31.591    -105.114      74.860
  P      -31.760    -103.518      74.945
  C      -30.370    -101.436      74.182
  O      -30.606    -102.832      74.066
  C      -29.047    -101.068      73.504
  O      -27.987    -101.942      73.953
  C      -29.059    -101.205      71.988
  O      -29.739    -100.130      71.364
  C      -27.568    -101.242      71.678
  O      -27.020     -99.914      71.623
  C      -27.009    -102.012      72.892
  N      -26.666    -103.394      72.572
  C      -25.323    -103.656      72.326
  O      -24.457    -102.783      72.311
  N      -25.009    -104.962      72.061
  C      -25.897    -105.995      71.952
  O      -25.556    -107.141      71.692
  C      -27.311    -105.640      72.142
  C      -27.625    -104.377      72.433
  O      -31.264    -103.210      76.439
  O      -33.143    -102.999      74.730
  H      -27.275     -99.472      72.458
  H      -31.705    -102.405      76.770
  H      -24.037    -105.179      71.908
  H      -28.049    -106.425      72.041
  H      -28.665    -104.099      72.577
  H      -26.113    -101.510      73.276
  H      -27.353    -101.716      70.715
  H      -29.507    -102.164      71.704
  H      -28.788    -100.041      73.796
  H      -30.317    -101.166      75.240
  H      -31.203    -100.895      73.722
  P      -31.210    -100.438      70.797
  C      -32.765    -102.316      71.739
  O      -31.977    -101.173      71.995
  O      -30.890    -101.594      69.735
  O      -31.880     -99.234      70.224
  H      -30.150    -102.158      70.019
  H      -32.353    -102.915      70.924
  H      -33.781    -102.003      71.483
  H      -32.800    -102.929      72.644
  H      -31.008    -106.868      75.767
  H      -31.682    -105.665      76.842
  H      -30.069    -105.460      76.202

 3  4  5  6  7  8  9  10  11  12  13  23  28  29  30  31  32 0
 6-311+G(2d,p)
 ****
 33  34 0
 6-311+G(2d,p)
 ****
 1  2  14  15  16  17  18  19  20  21  22  24  25  26 0
 3-21G
 ****
 27  35  36  37  38  39  40  41  42  43  44  45 0
 3-21G
 ****


