%nproc=1
%NoSave
%Mem=1900MB
#P OB98/GEN NMR

erre ene a

0 1
  C     -178.932    -107.788    -263.212
  O     -179.405    -106.926    -262.197
  H     -179.108    -107.315    -264.182
  H     -179.473    -108.737    -263.185
  H     -177.859    -107.968    -263.102
  P     -179.117    -107.306    -260.667
  C     -181.643    -107.446    -260.170
  O     -180.394    -108.123    -260.141
  C     -182.711    -108.345    -260.786
  O     -182.267    -108.822    -262.078
  C     -183.007    -109.600    -259.969
  O     -183.792    -109.305    -258.832
  C     -183.684    -110.470    -261.017
  O     -185.069    -110.127    -261.158
  C     -182.900    -110.105    -262.298
  N     -181.908    -111.126    -262.644
  C     -182.411    -112.369    -263.015
  O     -183.616    -112.624    -263.077
  N     -181.480    -113.338    -263.268
  C     -180.132    -113.226    -263.045
  O     -179.370    -114.185    -263.043
  C     -179.652    -111.876    -262.711
  C     -180.549    -110.905    -262.516
  O     -178.681    -106.178    -259.792
  O     -177.983    -108.435    -260.767
  H     -177.116    -108.041    -260.556
  H     -185.085    -109.196    -261.458
  H     -181.836    -114.256    -263.500
  H     -178.586    -111.728    -262.598
  H     -180.223    -109.906    -262.237
  H     -183.585    -109.983    -263.145
  H     -183.628    -111.528    -260.757
  H     -182.065    -110.076    -259.668
  H     -183.624    -107.754    -260.933
  H     -181.539    -106.538    -260.775
  H     -181.918    -107.164    -259.146
  P     -183.102    -109.172    -257.389
  C     -185.153    -110.237    -256.259
  O     -183.738    -110.283    -256.423
  O     -183.080    -107.790    -256.823
  O     -181.612    -109.715    -257.620
  H     -180.979    -109.066    -257.256
  H     -185.461    -111.020    -255.598
  H     -185.627    -110.366    -257.210
  H     -185.434    -109.291    -255.846

 6  7  8  9  10  11  12  13  14  15  16  27  31  32  33  34  35 0
 6-311+G(2d,p)
 ****
 36  37 0
 6-311+G(2d,p)
 ****
 1  2  3  4  5  17  18  19  20  21  22  23  24  25 0
 3-21G
 ****
 26  28  29  30  38  39  40  41  42  43  44  45 0
 3-21G
 ****


