%nproc=1
%NoSave
%Mem=1900MB
#P OB98/GEN NMR

erre ene a

0 1
  C      134.563    -238.556     226.061
  O      133.902    -239.807     226.134
  P      134.721    -241.166     226.377
  C      134.225    -241.972     223.973
  O      135.221    -241.616     224.923
  C      134.877    -242.291     222.632
  O      135.606    -241.141     222.161
  C      135.888    -243.430     222.676
  O      135.237    -244.691     222.733
  C      136.684    -243.162     221.404
  O      135.972    -243.649     220.256
  C      136.725    -241.618     221.379
  N      137.985    -241.078     221.878
  C      138.996    -240.880     220.932
  O      138.813    -241.143     219.744
  N      140.192    -240.349     221.348
  C      140.373    -240.064     222.602
  N      141.552    -239.477     222.944
  C      139.356    -240.311     223.638
  C      138.199    -240.808     223.210
  O      133.983    -242.216     227.135
  O      136.077    -240.696     227.078
  H      136.535    -243.467     219.478
  H      136.016    -240.647     228.064
  H      139.559    -240.069     224.672
  H      137.390    -240.998     223.906
  H      136.564    -241.253     220.358
  H      137.676    -243.624     221.405
  H      136.544    -243.328     223.548
  H      134.083    -242.515     221.906
  H      142.145    -239.169     222.182
  H      133.542    -241.125     223.849
  H      141.656    -238.973     223.815
  H      133.658    -242.830     224.350
  P      136.084    -245.941     223.270
  C      136.264    -246.714     220.800
  O      136.944    -246.460     222.016
  O      134.973    -247.072     223.487
  O      136.866    -245.668     224.512
  H      134.745    -247.146     224.433
  H      137.004    -246.822     220.005
  H      135.595    -245.885     220.548
  H      135.694    -247.643     220.879
  H      133.843    -237.782     225.896
  H      135.264    -238.570     225.253
  H      135.080    -238.372     226.979

 3  4  5  6  7  8  9  10  11  12  13  23  27  28  29  30  32 0
 6-311+G(2d,p)
 ****
 34  35 0
 6-311+G(2d,p)
 ****
 1  2  14  15  16  17  18  19  20  21  22  24  25  26 0
 3-21G
 ****
 31  33  36  37  38  39  40  41  42  43  44  45  46 0
 3-21G
 ****


