%nproc=1
%NoSave
%Mem=1900MB
#P OB98/GEN NMR

erre ene a

0 1
  C      397.451     610.423    -188.535
  O      398.266     611.521    -188.178
  H      396.513     610.451    -187.981
  H      397.232     610.482    -189.605
  H      397.978     609.481    -188.337
  P      398.682     611.637    -186.628
  C      398.541     614.220    -186.347
  O      399.375     613.079    -186.487
  C      399.320     615.465    -186.753
  O      400.299     615.794    -185.744
  C      400.096     615.307    -188.054
  O      399.284     615.506    -189.199
  C      401.124     616.423    -187.906
  O      400.512     617.687    -188.186
  C      401.490     616.314    -186.415
  N      406.404     616.085    -185.018
  C      405.545     617.126    -185.130
  N      404.248     617.100    -185.494
  C      403.847     615.840    -185.736
  C      404.604     614.684    -185.645
  C      405.958     614.837    -185.272
  N      406.840     613.781    -185.181
  N      403.847     613.578    -185.988
  C      402.647     614.067    -186.258
  N      402.611     615.432    -186.148
  O      399.917     610.626    -186.490
  O      397.596     611.374    -185.640
  H      401.132     618.384    -187.898
  H      400.109     610.449    -185.549
  H      405.963     618.105    -184.915
  H      401.790     613.477    -186.544
  H      401.723     617.291    -185.965
  H      401.961     616.310    -188.595
  H      400.617     614.345    -188.096
  H      398.617     616.311    -186.809
  H      398.228     614.312    -185.298
  H      407.812     614.017    -185.054
  H      406.546     612.876    -185.510
  H      397.657     614.109    -186.976
  P      398.641     614.198    -189.893
  C      400.209     613.271    -191.733
  O      399.171     614.181    -191.407
  O      397.101     614.606    -190.038
  O      398.826     612.938    -189.115
  H      396.519     613.823    -189.961
  H      400.458     613.371    -192.769
  H      399.881     612.271    -191.540
  H      401.071     613.485    -191.136

 6  7  8  9  10  11  12  13  14  15  25  28  32  33  34  35 0
 6-311+G(2d,p)
 ****
 36  39  40 0
 6-311+G(2d,p)
 ****
 1  2  3  4  5  16  17  18  19  20  21  22  23  24 0
 3-21G
 ****
 26  27  29  30  31  37  38  41  42  43  44  45  46  47 0
 3-21G
 ****
 48 0
 3-21G
 ****


