%nproc=1
%NoSave
%Mem=1900MB
#P OB98/GEN NMR

erre ene a

0 1
  C     -937.645    -482.091       9.741
  O     -938.817    -481.934      10.526
  H     -937.536    -483.150       9.496
  H     -936.775    -481.767      10.325
  H     -937.712    -481.522       8.816
  P     -939.376    -480.455      10.794
  C     -937.958    -479.404      12.680
  O     -938.120    -479.580      11.275
  C     -937.060    -478.199      12.975
  O     -937.630    -477.021      12.296
  C     -936.959    -477.848      14.482
  O     -935.649    -477.296      14.699
  C     -938.025    -476.775      14.601
  O     -937.922    -476.069      15.815
  C     -937.783    -475.996      13.304
  N     -938.859    -475.090      12.959
  C     -938.522    -473.748      12.766
  O     -937.374    -473.313      12.850
  N     -939.571    -472.906      12.481
  C     -940.878    -473.264      12.380
  O     -941.775    -472.470      12.088
  C     -941.178    -474.686      12.616
  C     -940.176    -475.520      12.895
  O     -940.585    -480.367      11.660
  O     -939.668    -479.886       9.320
  H     -940.614    -479.987       9.110
  H     -937.040    -475.655      15.886
  H     -939.340    -471.931      12.327
  H     -942.217    -475.004      12.570
  H     -940.353    -476.572      13.080
  H     -936.840    -475.453      13.347
  H     -939.023    -477.238      14.600
  H     -937.101    -478.711      15.129
  H     -936.080    -478.370      12.541
  H     -937.494    -480.318      13.085
  H     -938.948    -479.267      13.141
  P     -934.572    -477.962      15.669
  C     -935.105    -476.924      17.973
  O     -935.170    -478.084      17.150
  O     -933.232    -477.287      15.648
  O     -934.440    -479.487      15.181
  H     -933.512    -479.774      15.284
  H     -935.535    -477.140      18.929
  H     -935.648    -476.127      17.509
  H     -934.083    -476.633      18.100

 6  7  8  9  10  11  12  13  14  15  16  27  31  32  33  34  35 0
 6-311+G(2d,p)
 ****
 36  37 0
 6-311+G(2d,p)
 ****
 1  2  3  4  5  17  18  19  20  21  22  23  24  25 0
 3-21G
 ****
 26  28  29  30  38  39  40  41  42  43  44  45 0
 3-21G
 ****


