%nproc=1
%NoSave
%Mem=1900MB
#P OB98/GEN NMR

erre ene a

0 1
  C       12.022     -13.682     -12.726
  O       12.642     -12.622     -13.425
  H       11.948     -14.544     -13.394
  H       11.014     -13.393     -12.419
  H       12.610     -13.967     -11.850
  P       13.012     -11.283     -12.626
  C       11.738      -9.666     -11.071
  O       11.639     -10.684     -12.059
  C       10.394      -8.957     -10.922
  O       10.136      -8.128     -12.076
  C        9.206      -9.905     -10.820
  O        9.124     -10.486      -9.533
  C        8.062      -8.968     -11.170
  O        7.676      -8.179     -10.034
  C        8.703      -8.085     -12.263
  N        8.335      -8.499     -13.616
  C        7.455      -7.667     -14.301
  O        6.967      -6.649     -13.811
  N        7.125      -8.063     -15.570
  C        7.489      -9.237     -16.162
  O        7.093      -9.587     -17.268
  C        8.400     -10.088     -15.382
  C        8.775      -9.686     -14.167
  O       13.871     -10.309     -13.359
  O       13.738     -11.822     -11.303
  H        7.530      -8.808      -9.300
  H       14.700     -11.677     -11.380
  H        6.478      -7.481     -16.077
  H        8.723     -11.021     -15.824
  H        9.440     -10.303     -13.575
  H        8.401      -7.038     -12.132
  H        7.175      -9.505     -11.503
  H        9.276     -10.680     -11.591
  H       10.447      -8.302     -10.041
  H       12.498      -8.943     -11.386
  H       12.047     -10.119     -10.123
  P        8.569     -11.977      -9.365
  C        6.518     -13.309     -10.154
  O        7.082     -12.016      -9.965
  O        8.716     -12.564      -8.001
  O        9.410     -12.818     -10.436
  H        9.921     -13.510      -9.975
  H        5.531     -13.212     -10.556
  H        6.472     -13.819      -9.214
  H        7.127     -13.868     -10.834

 6  7  8  9  10  11  12  13  14  15  16  26  31  32  33  34  35 0
 6-311+G(2d,p)
 ****
 36  37 0
 6-311+G(2d,p)
 ****
 1  2  3  4  5  17  18  19  20  21  22  23  24  25 0
 3-21G
 ****
 27  28  29  30  38  39  40  41  42  43  44  45 0
 3-21G
 ****


