%nproc=1
%NoSave
%Mem=1900MB
#P OB98/GEN NMR

erre ene a

0 1
  C      666.422     683.387    -766.236
  O      666.968     683.043    -764.974
  H      665.851     682.535    -766.616
  H      667.216     683.618    -766.950
  H      665.747     684.245    -766.135
  P      667.916     684.098    -764.238
  C      666.185     684.907    -762.490
  O      666.958     685.238    -763.642
  C      666.244     686.039    -761.467
  O      667.549     686.100    -760.852
  C      665.997     687.424    -762.058
  O      664.620     687.611    -762.329
  C      666.565     688.299    -760.953
  O      665.643     688.419    -759.856
  C      667.818     687.483    -760.532
  N      669.051     687.937    -761.162
  C      669.728     688.975    -760.508
  O      669.267     689.468    -759.477
  N      670.893     689.442    -761.062
  C      671.373     688.898    -762.139
  N      672.536     689.395    -762.633
  C      670.714     687.774    -762.833
  C      669.556     687.359    -762.305
  O      669.072     684.623    -765.042
  O      668.415     683.325    -762.930
  H      664.791     688.684    -760.249
  H      669.269     682.892    -763.096
  H      671.146     687.344    -763.719
  H      669.005     686.542    -762.749
  H      667.951     687.535    -759.441
  H      666.783     689.312    -761.295
  H      666.607     687.565    -762.958
  H      665.515     685.813    -760.670
  H      672.963     690.157    -762.109
  H      666.618     683.996    -762.068
  H      673.072     688.952    -763.357
  H      665.148     684.699    -762.764
  P      664.129     688.564    -763.523
  C      663.172     686.702    -765.025
  O      664.207     687.669    -764.858
  O      664.824     689.880    -763.613
  O      662.551     688.686    -763.278
  H      662.366     689.321    -762.541
  H      663.325     686.170    -765.941
  H      662.223     687.196    -765.054
  H      663.191     686.014    -764.205

 6  7  8  9  10  11  12  13  14  15  16  26  30  31  32  33  35 0
 6-311+G(2d,p)
 ****
 37  38 0
 6-311+G(2d,p)
 ****
 1  2  3  4  5  17  18  19  20  21  22  23  24  25 0
 3-21G
 ****
 27  28  29  34  36  39  40  41  42  43  44  45  46 0
 3-21G
 ****


