%nproc=1
%NoSave
%Mem=1900MB
#P OB98/GEN NMR

erre ene a

0 1
  C       54.972    -760.232     -15.585
  O       53.683    -759.986     -16.094
  P       52.430    -760.837     -15.570
  C       51.781    -759.170     -13.670
  O       52.230    -760.466     -14.026
  C       50.380    -759.224     -13.037
  O       50.463    -760.088     -11.862
  C       49.854    -757.888     -12.521
  O       48.438    -757.992     -12.347
  C       50.525    -757.781     -11.175
  O       49.859    -756.858     -10.304
  C       50.538    -759.259     -10.678
  N       51.763    -759.565      -9.923
  C       51.726    -759.307      -8.547
  O       50.716    -758.922      -7.957
  N       52.928    -759.426      -7.872
  C       54.117    -759.732      -8.465
  O       55.211    -759.544      -7.934
  C       54.054    -760.208      -9.847
  C       52.890    -760.080     -10.515
  O       53.006    -762.322     -15.538
  O       51.198    -760.741     -16.414
  H       48.991    -757.269     -10.074
  H       52.763    -762.808     -16.353
  H       52.924    -759.111      -6.915
  H       54.953    -760.601     -10.310
  H       52.828    -760.383     -11.565
  H       49.677    -759.466     -10.031
  H       51.546    -757.429     -11.306
  H       50.091    -757.028     -13.170
  H       49.672    -759.686     -13.730
  H       51.762    -758.536     -14.569
  H       52.463    -758.711     -12.966
  P       47.559    -756.657     -12.494
  C       47.154    -756.920     -15.015
  O       47.774    -756.152     -14.014
  O       47.745    -755.615     -11.442
  O       46.048    -757.218     -12.526
  H       45.429    -756.492     -12.318
  H       46.912    -756.252     -15.867
  H       46.227    -757.385     -14.665
  H       47.844    -757.686     -15.366
  H       55.672    -759.571     -16.052
  H       55.249    -761.245     -15.789
  H       54.975    -760.067     -14.528

 3  4  5  6  7  8  9  10  11  12  13  23  28  29  30  31  32 0
 6-311+G(2d,p)
 ****
 33  34 0
 6-311+G(2d,p)
 ****
 1  2  14  15  16  17  18  19  20  21  22  24  25  26  27 0
 3-21G
 ****
 35  36  37  38  39  40  41  42  43  44  45 0
 3-21G
 ****


