%nproc=1
%NoSave
%Mem=1900MB
#P OB98/GEN NMR

erre ene a

0 1
  C      361.696    1079.053     542.892
  O      361.059    1077.768     542.758
  P      361.890    1076.456     543.123
  C      363.384    1076.208     540.996
  O      363.323    1076.472     542.387
  C      364.850    1076.194     540.490
  O      365.584    1075.086     541.115
  C      364.996    1076.025     538.963
  O      366.166    1076.747     538.568
  C      365.239    1074.526     538.821
  O      365.843    1074.173     537.595
  C      366.134    1074.276     540.054
  N      366.210    1072.862     540.451
  C      367.471    1072.289     540.526
  O      368.519    1072.849     540.209
  N      367.486    1070.975     540.965
  C      366.408    1070.211     541.278
  O      366.484    1069.043     541.625
  C      365.094    1070.866     541.149
  C      365.063    1072.151     540.749
  O      361.101    1075.323     542.301
  O      361.941    1076.096     544.570
  H      366.580    1074.806     537.437
  H      360.964    1074.545     542.855
  H      368.384    1070.542     541.035
  H      364.205    1070.301     541.402
  H      364.103    1072.671     540.672
  H      367.135    1074.653     539.854
  H      364.282    1073.994     538.909
  H      364.104    1076.371     538.402
  H      365.333    1077.120     540.825
  H      362.830    1076.972     540.446
  H      362.914    1075.236     540.787
  P      365.988    1078.010     537.584
  C      365.701    1077.099     535.135
  O      365.089    1077.520     536.351
  O      367.451    1078.110     536.948
  O      365.560    1079.282     538.265
  H      367.816    1077.230     536.693
  H      366.592    1076.513     535.336
  H      365.969    1077.977     534.557
  H      364.984    1076.508     534.573
  H      361.009    1079.823     542.610
  H      362.556    1079.093     542.257
  H      361.997    1079.198     543.909

 3  4  5  6  7  8  9  10  11  12  13  23  28  29  30  31  32 0
 6-311+G(2d,p)
 ****
 33  34 0
 6-311+G(2d,p)
 ****
 1  2  14  15  16  17  18  19  20  21  22  24  25  26 0
 3-21G
 ****
 27  35  36  37  38  39  40  41  42  43  44  45 0
 3-21G
 ****


