%nproc=1
%NoSave
%Mem=1900MB
#P OB98/GEN NMR

erre ene a

0 1
  C      -98.213      78.713      52.954
  O      -99.602      78.658      52.706
  H      -97.706      78.057      52.240
  H      -97.992      78.363      53.965
  H      -97.837      79.730      52.819
  P     -100.579      79.537      53.627
  C     -101.338      79.328      56.096
  O     -100.647      78.723      55.014
  C     -102.042      78.264      56.933
  O     -103.191      77.730      56.243
  C     -101.192      77.042      57.262
  O     -100.198      77.282      58.244
  C     -102.273      76.097      57.754
  O     -102.677      76.473      59.082
  C     -103.395      76.372      56.726
  N     -103.382      75.423      55.612
  C     -104.410      74.473      55.586
  O     -105.264      74.447      56.471
  N     -104.427      73.545      54.572
  C     -103.489      73.551      53.676
  N     -103.552      72.604      52.699
  C     -102.377      74.521      53.677
  C     -102.386      75.420      54.658
  O     -101.900      79.895      53.027
  O      -99.702      80.808      54.044
  H     -103.299      75.789      59.393
  H     -100.265      81.392      54.609
  H     -101.604      74.465      52.925
  H     -101.599      76.162      54.731
  H     -104.380      76.341      57.205
  H     -101.948      75.055      57.798
  H     -100.747      76.618      56.353
  H     -102.411      78.754      57.844
  H     -104.325      71.953      52.724
  H     -102.057      80.044      55.685
  H     -102.825      72.488      52.006
  H     -100.632      79.863      56.739
  P      -98.876      76.369      58.181
  C      -98.400      73.857      58.713
  O      -99.262      74.973      58.864
  O      -97.904      77.068      59.238
  O      -98.257      76.240      56.825
  H      -97.262      77.649      58.786
  H      -98.811      73.016      59.231
  H      -97.439      74.091      59.120
  H      -98.300      73.622      57.674

 6  7  8  9  10  11  12  13  14  15  16  26  30  31  32  33  35 0
 6-311+G(2d,p)
 ****
 37  38 0
 6-311+G(2d,p)
 ****
 1  2  3  4  5  17  18  19  20  21  22  23  24  25 0
 3-21G
 ****
 27  28  29  34  36  39  40  41  42  43  44  45  46 0
 3-21G
 ****


