%nproc=1
%NoSave
%Mem=1900MB
#P OB98/GEN NMR

erre ene a

0 1
  C     -895.270      20.625    2150.369
  O     -896.440      21.420    2150.549
  H     -894.510      21.248    2149.887
  H     -895.490      19.779    2149.745
  H     -894.880      20.298    2151.337
  P     -897.640      20.816    2151.400
  C     -898.450      22.729    2152.963
  O     -897.630      21.570    2152.832
  C     -897.670      23.986    2152.572
  O     -897.260      23.883    2151.175
  C     -898.460      25.304    2152.722
  O     -897.530      26.339    2153.016
  C     -899.030      25.459    2151.317
  O     -899.590      26.734    2151.097
  C     -897.790      25.085    2150.500
  N     -898.030      24.798    2149.093
  C     -897.530      25.739    2148.164
  O     -896.920      26.750    2148.480
  N     -897.800      25.436    2146.851
  C     -898.430      24.355    2146.375
  O     -898.620      24.138    2145.172
  C     -898.930      23.416    2147.401
  C     -898.710      23.675    2148.686
  O     -897.720      19.329    2151.490
  O     -898.960      21.434    2150.714
  H     -899.360      20.754    2150.140
  H     -900.000      26.755    2150.219
  H     -897.440      26.110    2146.173
  H     -899.470      22.531    2147.026
  H     -899.070      22.989    2149.453
  H     -897.000      25.853    2150.590
  H     -899.850      24.729    2151.161
  H     -899.220      25.261    2153.521
  H     -896.730      24.024    2153.152
  H     -898.750      22.793    2154.006
  H     -899.330      22.616    2152.316
  P     -897.610      27.242    2154.356
  C     -895.240      26.682    2155.318
  O     -896.650      26.537    2155.470
  O     -898.980      27.512    2154.839
  O     -896.820      28.603    2153.991
  H     -897.170      29.324    2154.564
  H     -894.741      26.172    2156.115
  H     -894.983      27.720    2155.344
  H     -894.937      26.263    2154.381

 6  7  8  9  10  11  12  13  14  15  16  27  31  32  33  34  35 0
 6-311+G(2d,p)
 ****
 36  37 0
 6-311+G(2d,p)
 ****
 1  2  3  4  5  17  18  19  20  21  22  23  24  25 0
 3-21G
 ****
 26  28  29  30  38  39  40  41  42  43  44  45 0
 3-21G
 ****


