%nproc=1
%NoSave
%Mem=1900MB
#P OB98/GEN NMR

erre ene a

0 1
  C       17.259     833.952    -196.220
  O       15.872     834.007    -195.907
  P       14.997     835.140    -196.627
  C       14.219     833.432    -198.406
  O       14.828     834.691    -198.163
  C       12.909     833.599    -199.179
  O       13.133     834.492    -200.309
  C       12.313     832.298    -199.722
  O       10.901     832.286    -199.494
  C       12.542     832.402    -201.221
  O       11.597     831.630    -201.961
  C       12.411     833.922    -201.414
  N       11.365     836.913    -205.364
  C       10.748     836.829    -204.117
  N        9.655     837.624    -203.930
  N       11.151     836.045    -203.150
  C       12.255     835.340    -203.469
  C       12.963     835.337    -204.658
  C       12.466     836.170    -205.731
  O       12.913     836.208    -206.880
  N       14.057     834.502    -204.592
  C       14.000     833.978    -203.372
  N       12.903     834.424    -202.665
  O       16.014     836.390    -196.704
  O       13.732     835.520    -195.918
  H       11.983     831.498    -202.851
  H       15.621     837.163    -196.266
  H       11.007     837.523    -206.070
  H       14.712     833.281    -202.967
  H       11.353     834.221    -201.320
  H       13.549     832.059    -201.455
  H        9.328     838.280    -204.618
  H       12.772     831.394    -199.297
  H        9.218     837.597    -203.032
  H       12.177     834.113    -198.516
  H       14.012     832.936    -197.444
  H       14.907     832.809    -198.990
  P       10.215     830.833    -199.342
  C       11.034     830.451    -196.890
  O       11.094     830.052    -198.247
  O       10.587     830.105    -200.715
  O        8.747     830.881    -199.088
  H        9.944     829.401    -200.920
  H       10.225     831.178    -196.721
  H       11.982     830.899    -196.602
  H       10.852     829.572    -196.260
  H       17.717     833.155    -195.673
  H       17.722     834.879    -195.954
  H       17.381     833.781    -197.269

 3  4  5  6  7  8  9  10  11  12  23  26  30  31  33  0
 6-311+G(2d,p)
 ****
 35  36  37  38 0
 6-311+G(2d,p)
 ****
 1  2  13  14  15  16  17  18  19  20  21  22  24  25  27  28  29 0
 3-21G
 ****
 32  34  39  40  41  42  43  44  45  46  47  48  49 0
 3-21G
 ****


