%nproc=1
%NoSave
%Mem=1900MB
#P OB98/GEN NMR

erre ene a

0 1
  C     -336.161     147.023     328.235
  O     -336.113     147.110     326.823
  H     -335.255     147.471     328.645
  H     -336.212     145.975     328.550
  H     -337.028     147.573     328.613
  P     -337.336     146.453     326.018
  C     -338.138     144.022     325.700
  O     -337.067     144.869     326.098
  C     -337.709     142.549     325.785
  O     -336.656     142.325     324.821
  C     -337.175     142.145     327.165
  O     -337.572     140.798     327.437
  C     -335.667     142.201     326.976
  O     -334.976     141.385     327.919
  C     -335.535     141.746     325.525
  N     -330.475     141.137     325.730
  C     -331.499     140.455     326.299
  N     -332.825     140.670     326.164
  C     -333.057     141.687     325.305
  C     -332.124     142.475     324.658
  C     -330.773     142.177     324.900
  N     -329.732     142.886     324.362
  N     -332.762     143.440     323.895
  C     -334.050     143.233     324.083
  N     -334.280     142.193     324.947
  O     -337.568     146.988     324.646
  O     -338.550     146.648     327.044
  H     -335.170     141.721     328.822
  H     -338.296     146.392     327.952
  H     -331.211     139.631     326.944
  H     -334.859     143.811     323.630
  H     -335.582     140.659     325.411
  H     -335.311     143.227     327.100
  H     -337.512     142.807     327.965
  H     -338.559     141.925     325.486
  H     -338.441     144.256     324.671
  H     -328.788     142.599     324.589
  H     -329.924     143.654     323.737
  H     -338.990     144.213     326.366
  P     -338.345     140.480     328.802
  C     -337.779     139.274     331.020
  O     -337.276     140.009     329.911
  O     -339.547     139.602     328.680
  O     -338.764     141.943     329.329
  H     -339.673     141.911     329.681
  H     -336.973     139.024     331.677
  H     -338.246     138.377     330.671
  H     -338.497     139.868     331.546

 6  7  8  9  10  11  12  13  14  15  25  28  32  33  34  35 0
 6-311+G(2d,p)
 ****
 36  39  40 0
 6-311+G(2d,p)
 ****
 1  2  3  4  5  16  17  18  19  20  21  22  23  24 0
 3-21G
 ****
 26  27  29  30  31  37  38  41  42  43  44  45  46  47 0
 3-21G
 ****
 48 0
 3-21G
 ****


