%nproc=1
%NoSave
%Mem=1900MB
#P OB98/GEN NMR

erre ene a

0 1
  C     -168.816     391.726     241.930
  O     -169.021     392.796     241.027
  H     -169.677     391.661     242.601
  H     -167.917     391.904     242.528
  H     -168.719     390.783     241.383
  P     -167.840     393.103     239.985
  C     -167.085     394.718     241.878
  O     -167.133     394.457     240.482
  C     -166.491     396.103     242.117
  O     -166.474     396.390     243.534
  C     -165.052     396.253     241.652
  O     -164.950     396.434     240.251
  C     -164.620     397.482     242.443
  O     -165.007     398.697     241.776
  C     -165.388     397.309     243.775
  N     -164.514     396.860     244.855
  C     -164.173     397.825     245.802
  O     -164.573     398.990     245.744
  N     -163.326     397.417     246.795
  C     -162.770     396.175     246.910
  O     -161.956     395.894     247.788
  C     -163.170     395.188     245.893
  C     -164.006     395.574     244.920
  O     -168.628     393.545     238.662
  O     -166.903     391.965     239.735
  H     -168.631     392.813     238.019
  H     -164.687     399.429     242.337
  H     -163.065     398.109     247.484
  H     -162.755     394.192     245.959
  H     -164.301     394.871     244.147
  H     -165.839     398.264     244.081
  H     -163.534     397.523     242.563
  H     -164.449     395.392     241.986
  H     -167.136     396.847     241.625
  H     -166.450     393.968     242.371
  H     -168.098     394.649     242.291
  P     -163.896     395.541     239.437
  C     -162.339     397.495     238.608
  O     -163.285     396.483     238.288
  O     -164.877     394.556     238.647
  O     -162.884     394.864     240.302
  H     -165.710     394.985     238.366
  H     -162.053     398.011     237.715
  H     -161.475     397.048     239.053
  H     -162.777     398.188     239.296

 6  7  8  9  10  11  12  13  14  15  16  27  31  32  33  34  35 0
 6-311+G(2d,p)
 ****
 36  37 0
 6-311+G(2d,p)
 ****
 1  2  3  4  5  17  18  19  20  21  22  23  24  25 0
 3-21G
 ****
 26  28  29  30  38  39  40  41  42  43  44  45 0
 3-21G
 ****


