%nproc=1
%NoSave
%Mem=1900MB
#P OB98/GEN NMR

erre ene a

0 1
  C       62.121    -175.853     -52.250
  O       63.212    -176.464     -52.911
  H       62.476    -175.419     -51.310
  H       61.352    -176.599     -52.027
  H       61.699    -175.059     -52.871
  P       62.879    -177.215     -54.289
  C       61.376    -179.293     -53.919
  O       62.696    -178.766     -53.925
  C       61.332    -180.612     -53.148
  O       59.992    -181.152     -53.140
  C       62.242    -181.702     -53.710
  O       63.568    -181.551     -53.237
  C       61.564    -182.954     -53.175
  O       61.922    -183.187     -51.793
  C       60.079    -182.594     -53.296
  N       59.237    -186.463     -56.433
  C       59.982    -186.403     -55.275
  N       60.630    -187.532     -54.909
  N       60.101    -185.325     -54.541
  C       59.451    -184.255     -55.058
  C       58.679    -184.190     -56.195
  C       58.511    -185.403     -56.968
  O       57.796    -185.543     -57.953
  N       58.170    -182.930     -56.377
  C       58.659    -182.230     -55.369
  N       59.449    -182.989     -54.546
  O       64.277    -177.187     -55.079
  O       61.790    -176.606     -55.105
  H       62.877    -183.374     -51.740
  H       64.097    -177.045     -56.026
  H       59.155    -187.329     -56.941
  H       58.464    -181.181     -55.188
  H       59.480    -183.042     -52.494
  H       61.874    -183.844     -53.725
  H       60.814    -188.282     -55.563
  H       62.210    -181.713     -54.808
  H       61.237    -187.464     -54.101
  H       61.596    -180.391     -52.105
  H       61.059    -179.467     -54.954
  H       60.701    -178.570     -53.453
  P       64.720    -181.225     -54.300
  C       65.028    -183.719     -54.952
  O       65.636    -182.534     -54.453
  O       65.663    -180.200     -53.505
  O       64.238    -180.626     -55.577
  H       65.528    -179.295     -53.841
  H       65.756    -184.501     -54.998
  H       64.640    -183.535     -55.932
  H       64.231    -184.012     -54.301

 6  7  8  9  10  11  12  13  14  15  26  29  33  34 0
 6-311+G(2d,p)
 ****
 36  38  39  40  41 0
 6-311+G(2d,p)
 ****
 1  2  3  4  5  16  17  18  19  20  21  22  23  24  25 0
 3-21G
 ****
 27  28  30  31  32  35  37  42  43  44  45  46  47 0
 3-21G
 ****
 48  49 0
 3-21G
 ****


