%nproc=1
%NoSave
%Mem=1900MB
#P OB98/GEN NMR

erre ene a

0 1
  C       72.087     -58.674    -274.396
  O       72.337     -59.180    -275.692
  H       72.936     -58.915    -273.753
  H       71.188     -59.135    -273.981
  H       71.964     -57.587    -274.427
  P       71.262     -58.834    -276.829
  C       69.440     -60.432    -275.873
  O       69.817     -59.097    -276.178
  C       67.985     -60.665    -276.283
  O       67.127     -59.875    -275.416
  C       67.687     -60.246    -277.729
  O       66.744     -61.160    -278.294
  C       67.048     -58.878    -277.570
  O       66.220     -58.502    -278.662
  C       66.278     -59.067    -276.259
  N       65.956     -57.800    -275.607
  C       64.663     -57.639    -275.121
  O       63.795     -58.513    -275.132
  N       64.376     -56.403    -274.600
  C       65.221     -55.336    -274.543
  O       64.899     -54.245    -274.086
  C       66.572     -55.564    -275.080
  C       66.871     -56.766    -275.581
  O       71.419     -60.045    -277.866
  O       71.413     -57.501    -277.477
  H       72.081     -59.825    -278.547
  H       65.676     -57.739    -278.381
  H       63.441     -56.270    -274.241
  H       67.270     -54.736    -275.060
  H       67.853     -56.961    -275.998
  H       65.357     -59.638    -276.437
  H       67.824     -58.112    -277.455
  H       68.581     -60.207    -278.351
  H       67.733     -61.719    -276.116
  H       69.541     -60.595    -274.796
  H       70.100     -61.124    -276.406
  P       67.310     -62.277    -279.301
  C       66.075     -61.437    -281.449
  O       67.302     -61.599    -280.757
  O       66.095     -63.313    -279.339
  O       68.619     -62.846    -278.863
  H       65.222     -62.890    -279.306
  H       66.258     -60.972    -282.395
  H       65.418     -60.822    -280.870
  H       65.624     -62.395    -281.604

 6  7  8  9  10  11  12  13  14  15  16  27  31  32  33  34  35 0
 6-311+G(2d,p)
 ****
 36  37 0
 6-311+G(2d,p)
 ****
 1  2  3  4  5  17  18  19  20  21  22  23  24  25 0
 3-21G
 ****
 26  28  29  30  38  39  40  41  42  43  44  45 0
 3-21G
 ****


