%nproc=1
%NoSave
%Mem=1900MB
#P OB98/GEN NMR

erre ene a

0 1
  C      -65.588     155.580    -185.832
  O      -65.637     156.845    -185.199
  P      -64.440     157.350    -184.263
  C      -65.509     156.663    -182.039
  O      -64.432     156.447    -182.940
  C      -65.066     156.483    -180.586
  O      -64.451     155.178    -180.428
  C      -64.060     157.539    -180.102
  O      -64.387     157.839    -178.740
  C      -62.734     156.808    -180.182
  O      -61.745     157.386    -179.340
  C      -63.165     155.387    -179.811
  N      -62.199     154.383    -180.234
  C      -61.092     154.180    -179.409
  O      -60.895     154.924    -178.445
  N      -60.232     153.150    -179.705
  C      -60.364     152.515    -180.829
  N      -59.533     151.458    -181.052
  C      -61.377     152.871    -181.841
  C      -62.280     153.775    -181.465
  O      -64.410     158.822    -184.012
  O      -63.113     156.875    -185.030
  H      -62.521     157.643    -185.149
  H      -61.002     156.754    -179.239
  H      -61.367     152.397    -182.813
  H      -63.080     154.084    -182.128
  H      -63.311     155.302    -178.724
  H      -62.359     156.840    -181.213
  H      -64.092     158.458    -180.694
  H      -65.962     156.498    -179.952
  H      -58.878     151.216    -180.319
  H      -66.293     155.937    -182.264
  H      -59.761     150.722    -181.724
  H      -65.928     157.665    -182.193
  P      -64.035     159.306    -178.177
  C      -62.053     158.359    -176.795
  O      -62.496     159.311    -177.745
  O      -64.784     159.294    -176.755
  O      -64.517     160.464    -178.994
  H      -64.989     160.211    -176.494
  H      -60.999     158.556    -176.574
  H      -62.141     157.351    -177.207
  H      -62.626     158.443    -175.872
  H      -66.478     155.435    -186.408
  H      -65.514     154.813    -185.090
  H      -64.735     155.537    -186.477

 3  4  5  6  7  8  9  10  11  12  13  24  27  28  29  30  32 0
 6-311+G(2d,p)
 ****
 34  35 0
 6-311+G(2d,p)
 ****
 1  2  14  15  16  17  18  19  20  21  22  23  25  26 0
 3-21G
 ****
 31  33  36  37  38  39  40  41  42  43  44  45  46 0
 3-21G
 ****


