%nproc=1
%NoSave
%Mem=1900MB
#P OB98/GEN NMR

erre ene a

0 1
  C     -103.753      89.197      84.234
  O     -102.730      88.449      84.862
  H     -104.253      89.816      84.987
  H     -104.491      88.529      83.783
  H     -103.327      89.854      83.468
  P     -101.905      87.428      83.935
  C     -100.008      89.168      83.574
  O     -100.981      88.322      82.973
  C      -98.609      88.649      83.247
  O      -98.475      88.464      81.815
  C      -97.487      89.602      83.640
  O      -97.201      89.550      85.025
  C      -96.347      89.072      82.780
  O      -95.685      87.963      83.408
  C      -97.080      88.631      81.492
  N      -96.879      89.567      80.396
  C      -95.683      89.429      79.689
  O      -94.837      88.576      79.957
  N      -95.479      90.336      78.679
  C      -96.310      91.360      78.342
  O      -96.027      92.184      77.475
  C      -97.565      91.450      79.114
  C      -97.784      90.569      80.096
  O     -103.027      86.845      82.954
  O     -101.186      86.348      84.672
  H     -103.288      85.951      83.236
  H      -96.392      87.399      83.776
  H      -94.616      90.257      78.168
  H      -98.250      92.257      78.868
  H      -98.690      90.631      80.689
  H      -96.712      87.642      81.169
  H      -95.589      89.837      82.604
  H      -97.728      90.626      83.317
  H      -98.476      87.673      83.737
  H     -100.144      89.170      84.661
  H     -100.147      90.193      83.202
  P      -96.560      90.852      85.720
  C      -98.882      91.680      86.645
  O      -97.742      91.931      85.843
  O      -95.639      91.412      84.542
  O      -95.847      90.563      86.998
  H      -96.029      91.284      83.657
  H      -99.546      92.517      86.592
  H      -98.578      91.529      87.660
  H      -99.383      90.804      86.289

 6  7  8  9  10  11  12  13  14  15  16  27  31  32  33  34  35 0
 6-311+G(2d,p)
 ****
 36  37 0
 6-311+G(2d,p)
 ****
 1  2  3  4  5  17  18  19  20  21  22  23  24  25 0
 3-21G
 ****
 26  28  29  30  38  39  40  41  42  43  44  45 0
 3-21G
 ****


