%nproc=1
%NoSave
%Mem=1900MB
#P OB98/GEN NMR

erre ene a

0 1
  C       79.818     431.123     232.978
  O       79.874     432.024     234.066
  H       79.497     431.669     232.089
  H       79.090     430.334     233.185
  H       80.799     430.678     232.780
  P       80.593     431.554     235.423
  C       79.899     430.170     237.485
  O       79.564     430.564     236.160
  C       78.875     429.170     238.026
  O       77.634     429.877     238.336
  C       78.525     428.039     237.042
  O       78.201     426.875     237.822
  C       77.277     428.583     236.381
  O       76.546     427.568     235.726
  C       76.584     429.254     237.569
  N       75.559     430.216     237.158
  C       74.243     429.889     237.457
  O       73.920     428.837     238.014
  N       73.295     430.788     237.062
  C       73.527     431.933     236.354
  O       72.630     432.691     235.996
  C       74.938     432.206     236.028
  C       75.874     431.356     236.440
  O       81.133     432.652     236.283
  O       81.747     430.555     234.936
  H       77.029     427.255     234.929
  H       82.502     430.589     235.553
  H       72.335     430.571     237.285
  H       75.152     433.104     235.454
  H       76.922     431.526     236.206
  H       76.104     428.502     238.215
  H       77.537     429.331     235.626
  H       79.326     427.820     236.335
  H       79.250     428.762     238.974
  H       79.907     431.068     238.115
  H       80.898     429.720     237.490
  P       79.138     425.565     237.822
  C       79.561     423.515     236.314
  O       78.699     424.617     236.599
  O       79.208     424.865     239.142
  O       80.581     426.099     237.379
  H       81.275     425.521     237.761
  H       79.169     422.960     235.487
  H       79.623     422.879     237.172
  H       80.537     423.879     236.069

 6  7  8  9  10  11  12  13  14  15  16  26  31  32  33  34  35 0
 6-311+G(2d,p)
 ****
 36  37 0
 6-311+G(2d,p)
 ****
 1  2  3  4  5  17  18  19  20  21  22  23  24  25 0
 3-21G
 ****
 27  28  29  30  38  39  40  41  42  43  44  45 0
 3-21G
 ****


