%nproc=1
%NoSave
%Mem=1900MB
#P OB98/GEN NMR

erre ene a

0 1
  C      -72.807      83.820     216.955
  O      -72.213      82.567     216.685
  H      -72.358      84.230     217.866
  H      -73.882      83.701     217.122
  H      -72.630      84.521     216.134
  P      -72.583      81.818     215.317
  C      -74.842      81.062     216.320
  O      -74.183      81.730     215.249
  C      -76.354      81.113     216.115
  O      -76.846      82.449     216.370
  C      -76.795      80.777     214.692
  O      -76.739      79.381     214.455
  C      -78.195      81.370     214.678
  O      -79.136      80.484     215.301
  C      -77.999      82.651     215.522
  N      -77.843      83.853     214.700
  C      -78.968      84.268     213.987
  O      -80.039      83.658     213.999
  N      -78.808      85.400     213.232
  C      -77.635      86.072     213.032
  O      -77.527      87.027     212.267
  C      -76.478      85.577     213.787
  C      -76.631      84.506     214.574
  O      -71.869      80.530     215.072
  O      -72.235      82.902     214.189
  H      -78.872      80.414     216.240
  H      -71.401      82.652     213.745
  H      -79.606      85.709     212.698
  H      -75.534      86.091     213.665
  H      -75.788      84.126     215.135
  H      -78.857      82.801     216.187
  H      -78.552      81.561     213.667
  H      -76.174      81.318     213.970
  H      -76.827      80.434     216.841
  H      -74.581      81.564     217.260
  H      -74.489      80.024     216.363
  P      -76.352      78.835     213.003
  C      -78.801      78.493     212.289
  O      -77.575      79.166     212.016
  O      -75.870      77.421     212.960
  O      -75.207      79.839     212.507
  H      -74.384      79.340     212.344
  H      -79.538      78.790     211.572
  H      -79.137      78.748     213.272
  H      -78.649      77.436     212.227

 6  7  8  9  10  11  12  13  14  15  16  26  31  32  33  34  35 0
 6-311+G(2d,p)
 ****
 36  37 0
 6-311+G(2d,p)
 ****
 1  2  3  4  5  17  18  19  20  21  22  23  24  25 0
 3-21G
 ****
 27  28  29  30  38  39  40  41  42  43  44  45 0
 3-21G
 ****


