%nproc=1
%NoSave
%Mem=1900MB
#P OB98/GEN NMR

erre ene a

0 1
  C      251.012     213.806    -153.822
  O      251.594     213.832    -152.514
  P      250.622     213.579    -151.262
  C      251.400     215.577    -149.798
  O      250.339     214.984    -150.535
  C      250.924     216.037    -148.410
  O      252.061     216.447    -147.589
  C      249.960     217.226    -148.457
  O      249.076     217.127    -147.334
  C      250.881     218.411    -148.249
  O      250.164     219.571    -147.829
  C      251.851     217.831    -147.221
  N      253.976     222.383    -146.713
  C      252.639     222.018    -146.740
  N      251.738     223.015    -146.572
  N      252.223     220.791    -146.915
  C      253.243     219.895    -147.029
  C      254.592     220.138    -147.034
  C      255.039     221.497    -146.863
  O      256.208     221.881    -146.843
  N      255.309     218.973    -147.200
  C      254.383     218.033    -147.314
  N      253.111     218.544    -147.184
  O      251.565     212.802    -150.224
  O      249.407     212.773    -151.595
  H      250.805     220.316    -147.795
  H      251.298     211.868    -150.171
  H      254.235     223.346    -146.585
  H      254.571     216.990    -147.487
  H      251.445     217.852    -146.204
  H      251.400     218.646    -149.189
  H      251.993     223.971    -146.384
  H      249.369     217.300    -149.377
  H      250.756     222.768    -146.545
  H      250.451     215.190    -147.906
  H      251.811     216.429    -150.345
  H      252.221     214.854    -149.721
  P      247.875     216.067    -147.441
  C      246.207     217.840    -148.351
  O      246.890     216.617    -148.579
  O      247.052     216.293    -146.087
  O      248.317     214.649    -147.605
  H      246.564     215.482    -145.855
  H      246.695     218.635    -148.927
  H      246.198     218.112    -147.290
  H      245.176     217.732    -148.695
  H      251.771     213.989    -154.554
  H      250.259     214.563    -153.892
  H      250.571     212.847    -153.997

 3  4  5  6  7  8  9  10  11  12  23  26  30  31 0
 6-311+G(2d,p)
 ****
 33  35  36  37  38 0
 6-311+G(2d,p)
 ****
 1  2  13  14  15  16  17  18  19  20  21  22  24  25 0
 3-21G
 ****
 27  28  29  32  34  39  40  41  42  43  44  45  46  47  48  49 0
 3-21G
 ****


