%nproc=1
%NoSave
%Mem=1900MB
#P OB98/GEN NMR

erre ene a

0 1
  C     -600.336    -110.378     736.766
  O     -600.004    -109.580     737.878
  H     -600.622    -109.731     735.928
  H     -601.190    -111.015     737.025
  H     -599.492    -111.005     736.455
  P     -599.182    -110.271     739.070
  C     -597.028    -109.614     737.764
  O     -597.699    -109.654     739.023
  C     -595.754    -108.764     737.877
  O     -596.136    -107.392     738.227
  C     -594.745    -109.255     738.940
  O     -593.418    -109.037     738.454
  C     -594.992    -108.291     740.091
  O     -593.870    -108.194     740.958
  C     -595.305    -107.003     739.333
  N     -594.424    -103.497     742.826
  C     -593.549    -104.170     741.997
  N     -592.231    -103.937     742.160
  N     -593.943    -105.028     741.083
  C     -595.292    -105.163     741.013
  C     -596.250    -104.555     741.785
  C     -595.820    -103.614     742.810
  O     -596.523    -103.009     743.577
  N     -597.519    -105.010     741.437
  C     -597.303    -105.909     740.488
  N     -595.976    -106.032     740.194
  O     -598.979    -111.771     738.526
  O     -599.848    -110.244     740.404
  H     -593.605    -109.085     741.237
  H     -599.685    -112.345     738.884
  H     -594.075    -102.862     743.530
  H     -598.067    -106.484     739.995
  H     -594.411    -106.522     738.941
  H     -595.856    -108.621     740.691
  H     -591.851    -103.268     742.817
  H     -594.872    -110.299     739.223
  H     -591.586    -104.395     741.528
  H     -595.274    -108.714     736.882
  H     -597.697    -109.168     737.017
  H     -596.782    -110.634     737.465
  P     -592.331    -110.196     738.660
  C     -590.970    -110.004     736.446
  O     -590.999    -109.819     737.858
  O     -592.938    -111.406     737.790
  O     -592.125    -110.589     740.096
  H     -592.737    -112.267     738.241
  H     -590.015    -109.706     736.067
  H     -591.735    -109.409     735.993
  H     -591.139    -111.036     736.218

 6  7  8  9  10  11  12  13  14  15  26  29  33  34 0
 6-311+G(2d,p)
 ****
 36  38  39  40  41 0
 6-311+G(2d,p)
 ****
 1  2  3  4  5  16  17  18  19  20  21  22  23  24  25 0
 3-21G
 ****
 27  28  30  31  32  35  37  42  43  44  45  46  47 0
 3-21G
 ****
 48  49 0
 3-21G
 ****


