%nproc=1
%NoSave
%Mem=1900MB
#P OB98/GEN NMR

erre ene a

0 1
  C       10.904      76.030     106.099
  O       10.208      76.853     107.021
  P        8.913      77.689     106.571
  C       10.241      79.805     107.222
  O        9.463      79.155     106.228
  C       11.500      80.399     106.590
  O       12.043      79.467     105.632
  C       11.268      81.694     105.823
  O       11.115      82.792     106.709
  C       12.511      81.731     104.938
  O       13.642      82.205     105.684
  C       12.701      80.238     104.594
  N       12.185      79.888     103.274
  C       13.130      79.748     102.254
  O       14.330      79.909     102.475
  N       12.698      79.397     101.002
  C       11.429      79.219     100.777
  N       11.066      78.803      99.532
  C       10.397      79.409     101.809
  C       10.840      79.734     103.023
  O        7.778      77.659     107.538
  O        8.544      77.110     105.129
  H       14.415      82.150     105.089
  H        7.937      76.331     105.154
  H        9.354      79.264     101.571
  H       10.145      79.871     103.843
  H       13.762      79.969     104.643
  H       12.400      82.368     104.055
  H       10.374      81.611     105.196
  H       12.247      80.551     107.384
  H       11.816      78.518      98.912
  H       10.535      79.065     107.977
  H       10.167      78.375      99.360
  H        9.639      80.583     107.705
  P        9.767      83.653     106.598
  C       11.366      85.535     105.802
  O       10.113      84.890     105.638
  O        9.628      84.304     108.053
  O        8.560      82.860     106.214
  H        8.970      83.811     108.581
  H       11.543      86.179     104.938
  H       12.175      84.796     105.862
  H       11.353      86.149     106.702
  H       11.731      75.562     106.592
  H       11.264      76.628     105.288
  H       10.242      75.279     105.721

 3  4  5  6  7  8  9  10  11  12  13  23  27  28  29  30  32 0
 6-311+G(2d,p)
 ****
 34  35 0
 6-311+G(2d,p)
 ****
 1  2  14  15  16  17  18  19  20  21  22  24  25  26 0
 3-21G
 ****
 31  33  36  37  38  39  40  41  42  43  44  45  46 0
 3-21G
 ****


