%nproc=1
%NoSave
%Mem=1900MB
#P OB98/GEN NMR

erre ene a

0 1
  C      222.935     108.076    -302.029
  O      222.062     108.698    -302.952
  H      223.845     108.676    -301.946
  H      223.204     107.075    -302.387
  H      222.463     108.005    -301.045
  P      220.597     108.071    -303.097
  C      221.268     106.742    -305.260
  O      220.740     106.709    -303.942
  C      221.619     105.328    -305.719
  O      222.822     104.854    -305.084
  C      220.576     104.286    -305.345
  O      219.392     104.402    -306.097
  C      221.359     103.006    -305.612
  O      221.386     102.701    -307.014
  C      222.771     103.402    -305.112
  N      223.083     102.827    -303.809
  C      223.627     101.533    -303.827
  O      223.821     100.961    -304.900
  N      223.902     100.917    -302.634
  C      223.683     101.544    -301.518
  N      223.970     100.878    -300.368
  C      223.134     102.914    -301.452
  C      222.859     103.487    -302.622
  O      219.894     109.061    -304.139
  O      219.849     107.891    -301.815
  H      221.810     101.827    -307.095
  H      220.397     109.181    -304.963
  H      222.978     103.401    -300.500
  H      222.455     104.490    -302.664
  H      223.537     103.069    -305.820
  H      220.919     102.142    -305.106
  H      220.365     104.331    -304.267
  H      221.792     105.353    -306.803
  H      224.321      99.931    -300.453
  H      222.149     107.393    -305.313
  H      223.807     101.250    -299.444
  H      220.504     107.172    -305.915
  P      217.962     104.176    -305.407
  C      217.558     101.737    -306.125
  O      217.876     102.609    -305.050
  O      216.797     104.699    -306.172
  O      218.142     104.841    -303.959
  H      218.850     104.451    -303.415
  H      217.529     100.728    -305.769
  H      218.303     101.825    -306.888
  H      216.602     102.001    -306.527

 6  7  8  9  10  11  12  13  14  15  16  26  30  31  32  33  35 0
 6-311+G(2d,p)
 ****
 37  38 0
 6-311+G(2d,p)
 ****
 1  2  3  4  5  17  18  19  20  21  22  23  24  25 0
 3-21G
 ****
 27  28  29  34  36  39  40  41  42  43  44  45  46 0
 3-21G
 ****


