%nproc=1
%NoSave
%Mem=1900MB
#P OB98/GEN NMR

erre ene a

0 1
  C     -144.515    -376.654    -431.048
  O     -144.693    -377.336    -429.823
  H     -144.520    -377.386    -431.862
  H     -143.552    -376.138    -431.050
  H     -145.326    -375.935    -431.215
  P     -144.918    -376.426    -428.520
  C     -142.727    -377.334    -427.457
  O     -143.467    -376.194    -427.870
  C     -141.245    -377.145    -427.774
  O     -141.066    -376.890    -429.187
  C     -140.595    -375.975    -427.044
  O     -140.204    -376.332    -425.722
  C     -139.376    -375.737    -427.930
  O     -138.373    -376.740    -427.659
  C     -139.967    -375.944    -429.333
  N     -138.673    -371.490    -431.388
  C     -137.881    -372.480    -430.839
  N     -136.547    -372.249    -430.827
  N     -138.342    -373.597    -430.338
  C     -139.696    -373.689    -430.407
  C     -140.590    -372.782    -430.929
  C     -140.060    -371.554    -431.482
  O     -140.717    -370.656    -431.998
  N     -141.881    -373.230    -430.828
  C     -141.767    -374.402    -430.234
  N     -140.465    -374.724    -429.949
  O     -145.628    -377.430    -427.487
  O     -145.738    -375.199    -428.730
  H     -138.136    -376.650    -426.717
  H     -146.277    -376.927    -426.957
  H     -138.266    -370.649    -431.743
  H     -142.598    -375.052    -429.986
  H     -139.246    -376.381    -430.029
  H     -138.914    -374.767    -427.758
  H     -136.130    -371.389    -431.145
  H     -141.232    -375.085    -427.057
  H     -135.943    -372.974    -430.463
  H     -140.725    -378.087    -427.544
  H     -143.103    -378.218    -427.986
  H     -142.869    -377.479    -426.377
  P     -141.000    -375.651    -424.504
  C     -138.670    -374.765    -423.781
  O     -140.051    -374.472    -423.966
  O     -140.907    -376.759    -423.348
  O     -142.412    -375.272    -424.809
  H     -141.635    -376.639    -422.710
  H     -138.165    -373.893    -423.422
  H     -138.241    -375.066    -424.714
  H     -138.566    -375.556    -423.068

 6  7  8  9  10  11  12  13  14  15  26  29  33  34 0
 6-311+G(2d,p)
 ****
 36  38  39  40  41 0
 6-311+G(2d,p)
 ****
 1  2  3  4  5  16  17  18  19  20  21  22  23  24  25 0
 3-21G
 ****
 27  28  30  31  32  35  37  42  43  44  45  46  47 0
 3-21G
 ****
 48  49 0
 3-21G
 ****


