%nproc=1
%NoSave
%Mem=1900MB
#P OB98/GEN NMR

erre ene a

0 1
  C      127.349      21.043       1.558
  O      127.070      22.162       0.713
  P      126.959      23.586       1.447
  C      129.346      24.519       1.037
  O      127.966      24.593       0.702
  C      130.215      25.084      -0.093
  O      129.792      24.557      -1.385
  C      130.172      26.619      -0.196
  O      131.480      27.042      -0.607
  C      129.160      26.832      -1.311
  O      129.199      28.140      -1.860
  C      129.561      25.697      -2.247
  N      127.388      27.328      -6.566
  C      128.355      27.856      -5.786
  N      128.879      27.358      -4.642
  C      128.301      26.185      -4.332
  C      127.301      25.522      -5.027
  C      126.837      26.143      -6.201
  N      125.837      25.623      -6.992
  N      126.949      24.347      -4.376
  C      127.677      24.353      -3.273
  N      128.563      25.393      -3.247
  O      127.652      23.332       2.867
  O      125.559      24.084       1.579
  H      128.510      28.230      -2.551
  H      126.976      23.180       3.553
  H      128.761      28.804      -6.120
  H      127.603      23.631      -2.469
  H      130.497      25.906      -2.776
  H      128.148      26.672      -0.917
  H      129.912      27.115       0.743
  H      131.251      24.753       0.072
  H      129.630      23.480       1.221
  H      125.568      26.144      -7.812
  H      125.394      24.749      -6.746
  H      129.515      25.056       1.977
  P      132.546      27.454       0.518
  C      133.979      25.435       1.198
  O      133.801      26.482       0.260
  O      131.885      26.776       1.815
  O      132.825      28.913       0.664
  H      131.652      25.846       1.643
  H      134.807      24.806       0.865
  H      133.072      24.826       1.263
  H      134.222      25.851       2.180
  H      127.400      20.153       0.966
  H      126.571      20.943       2.286
  H      128.284      21.196       2.055

 3  4  5  6  7  8  9  10  11  12  22  25  29  30  31  32 0
 6-311+G(2d,p)
 ****
 33  36  37 0
 6-311+G(2d,p)
 ****
 1  2  13  14  15  16  17  18  19  20  21  23  24  26 0
 3-21G
 ****
 27  28  34  35  38  39  40  41  42  43  44  45  46  47  48 0
 3-21G
 ****


