%nproc=1
%NoSave
%Mem=1900MB
#P OB98/GEN NMR

erre ene a

0 1
  C      -49.577     -52.352      51.132
  O      -48.229     -51.934      51.099
  H      -50.209     -51.488      51.355
  H      -49.708     -53.093      51.924
  H      -49.881     -52.775      50.171
  P      -47.170     -52.922      50.412
  C      -45.933     -51.339      48.770
  O      -45.898     -52.027      50.012
  C      -45.101     -50.058      48.847
  O      -45.653     -49.208      49.897
  C      -43.615     -50.292      49.168
  O      -42.829     -49.339      48.441
  C      -43.532     -49.949      50.643
  O      -42.216     -49.582      51.041
  C      -44.545     -48.811      50.726
  N      -44.573     -45.307      54.317
  C      -44.273     -45.212      52.974
  N      -43.854     -44.012      52.521
  N      -44.369     -46.215      52.141
  C      -44.817     -47.354      52.721
  C      -45.143     -47.579      54.035
  C      -45.016     -46.465      54.953
  O      -45.247     -46.492      56.156
  N      -45.496     -48.890      54.237
  C      -45.362     -49.458      53.050
  N      -44.951     -48.567      52.099
  O      -47.859     -53.249      49.005
  O      -46.860     -54.162      51.182
  H      -41.606     -50.299      50.775
  H      -48.366     -54.080      49.069
  H      -44.467     -44.509      54.920
  H      -45.530     -50.503      52.834
  H      -44.147     -47.865      50.338
  H      -43.852     -50.807      51.247
  H      -43.785     -43.186      53.094
  H      -43.266     -51.305      48.944
  H      -43.669     -43.917      51.529
  H      -45.211     -49.512      47.903
  H      -46.969     -51.076      48.534
  H      -45.549     -51.995      47.983
  P      -41.564     -49.876      47.618
  C      -41.696     -48.259      45.583
  O      -40.977     -48.672      46.736
  O      -42.227     -50.841      46.526
  O      -40.562     -50.602      48.453
  H      -41.632     -51.592      46.345
  H      -41.177     -47.453      45.109
  H      -42.674     -47.934      45.870
  H      -41.779     -49.080      44.901

 6  7  8  9  10  11  12  13  14  15  26  29  33  34 0
 6-311+G(2d,p)
 ****
 36  38  39  40  41 0
 6-311+G(2d,p)
 ****
 1  2  3  4  5  16  17  18  19  20  21  22  23  24  25 0
 3-21G
 ****
 27  28  30  31  32  35  37  42  43  44  45  46  47 0
 3-21G
 ****
 48  49 0
 3-21G
 ****


