%nproc=1
%NoSave
%Mem=1900MB
#P OB98/GEN NMR

erre ene a

0 1
  C        5.224     143.706     281.211
  O        6.174     144.661     281.631
  P        7.728     144.333     281.810
  C        8.782     145.718     279.881
  O        8.430     144.427     280.367
  C       10.018     145.699     278.971
  O       11.187     145.382     279.754
  C        9.884     144.590     277.924
  O        9.152     144.815     276.736
  C       11.301     144.070     277.715
  O       11.927     144.630     276.559
  C       12.031     144.509     278.986
  N       15.709     141.182     280.029
  C       15.772     142.341     279.279
  N       16.907     142.524     278.570
  N       14.802     143.215     279.217
  C       13.696     142.843     279.903
  C       13.521     141.730     280.691
  C       14.615     140.792     280.784
  O       14.569     139.713     281.369
  N       12.241     141.643     281.175
  C       11.627     142.682     280.648
  N       12.457     143.418     279.837
  O        8.074     143.184     282.700
  O        8.254     145.677     282.531
  H       12.055     145.582     276.720
  H        8.967     145.420     283.146
  H       16.460     140.505     279.974
  H       10.582     142.926     280.793
  H       12.929     145.087     278.735
  H       11.296     142.984     277.566
  H       17.609     141.805     278.480
  H        9.351     143.763     278.408
  H       16.920     143.269     277.883
  H       10.207     146.688     278.543
  H        8.952     146.360     280.751
  H        7.939     146.143     279.330
  P        8.553     143.698     275.762
  C        6.572     143.159     277.287
  O        7.727     142.650     276.644
  O        9.830     142.849     275.302
  O        7.825     144.227     274.569
  H        9.635     142.388     274.465
  H        6.272     142.469     278.079
  H        5.757     143.243     276.562
  H        6.769     144.141     277.726
  H        4.256     144.161     281.167
  H        5.204     142.893     281.906
  H        5.491     143.340     280.241

 3  4  5  6  7  8  9  10  11  12  23  26  30  31 0
 6-311+G(2d,p)
 ****
 33  35  36  37  38 0
 6-311+G(2d,p)
 ****
 1  2  13  14  15  16  17  18  19  20  21  22  24  25 0
 3-21G
 ****
 27  28  29  32  34  39  40  41  42  43  44  45  46  47  48  49 0
 3-21G
 ****


