%nproc=1
%NoSave
%Mem=1900MB
#P OB98/GEN NMR

erre ene a

0 1
  C     -177.453    -148.309     412.347
  O     -178.363    -148.536     413.427
  P     -178.444    -147.419     414.578
  C     -177.302    -148.763     416.489
  O     -178.493    -148.150     416.007
  C     -177.593    -149.706     417.663
  O     -178.385    -149.037     418.680
  C     -178.374    -150.967     417.262
  O     -177.992    -152.037     418.144
  C     -179.808    -150.582     417.559
  O     -180.653    -151.724     417.667
  C     -179.614    -149.776     418.846
  N     -183.754    -149.096     421.644
  C     -182.872    -150.157     421.608
  N     -183.102    -151.169     422.470
  N     -181.841    -150.218     420.799
  C     -181.710    -149.112     420.020
  C     -182.525    -148.003     419.959
  C     -183.672    -147.962     420.845
  O     -184.498    -147.053     420.909
  N     -182.083    -147.107     419.023
  C     -181.003    -147.677     418.512
  N     -180.720    -148.878     419.108
  O     -179.931    -146.835     414.408
  O     -177.420    -146.337     414.443
  H     -180.682    -152.149     416.782
  H     -179.887    -145.941     414.031
  H     -184.533    -149.104     422.286
  H     -180.399    -147.268     417.715
  H     -179.510    -150.428     419.730
  H     -180.195    -149.942     416.753
  H     -183.841    -151.160     423.158
  H     -178.223    -151.291     416.226
  H     -182.446    -151.938     422.494
  H     -176.642    -149.997     418.122
  H     -176.584    -148.003     416.803
  H     -176.827    -149.300     415.660
  P     -176.443    -152.450     418.160
  C     -176.674    -155.015     417.797
  O     -176.394    -153.958     418.696
  O     -175.837    -151.600     419.372
  O     -175.719    -152.200     416.879
  H     -174.883    -151.458     419.242
  H     -175.736    -155.492     417.514
  H     -177.190    -154.659     416.899
  H     -177.308    -155.749     418.305
  H     -177.504    -149.128     411.660
  H     -176.458    -148.227     412.731
  H     -177.717    -147.403     411.843

 3  4  5  6  7  8  9  10  11  12  23  26  30  31 0
 6-311+G(2d,p)
 ****
 33  35  36  37  38 0
 6-311+G(2d,p)
 ****
 1  2  13  14  15  16  17  18  19  20  21  22  24  25 0
 3-21G
 ****
 27  28  29  32  34  39  40  41  42  43  44  45  46  47  48  49 0
 3-21G
 ****


