%nproc=1
%NoSave
%Mem=1900MB
#P OB98/GEN NMR

erre ene a

0 1
  C      115.224    -174.589    -436.509
  O      115.267    -173.568    -435.533
  H      114.486    -174.341    -437.275
  H      116.209    -174.668    -436.978
  H      114.976    -175.551    -436.049
  P      113.972    -173.405    -434.601
  C      111.612    -172.374    -434.964
  O      112.952    -172.481    -435.429
  C      110.816    -171.415    -435.848
  O      111.443    -170.103    -435.799
  C      110.754    -171.844    -437.317
  O      109.454    -171.544    -437.828
  C      111.791    -170.961    -437.989
  O      111.527    -170.778    -439.375
  C      111.690    -169.688    -437.156
  N      114.679    -166.952    -440.265
  C      113.476    -167.537    -440.451
  N      112.741    -168.245    -439.565
  C      113.350    -168.277    -438.366
  C      114.573    -167.730    -438.027
  C      115.261    -167.046    -439.045
  N      116.503    -166.478    -438.874
  N      114.877    -168.004    -436.707
  C      113.850    -168.706    -436.262
  N      112.908    -168.897    -437.230
  O      114.506    -172.430    -433.442
  O      113.403    -174.669    -434.052
  H      112.339    -170.433    -439.799
  H      115.018    -172.949    -432.794
  H      113.048    -167.429    -441.444
  H      113.751    -169.102    -435.258
  H      110.863    -169.038    -437.475
  H      112.784    -171.415    -437.887
  H      110.963    -172.905    -437.457
  H      109.812    -171.298    -435.422
  H      111.621    -172.003    -433.934
  H      116.946    -166.056    -439.674
  H      116.978    -166.590    -437.991
  H      111.145    -173.366    -434.981
  P      108.736    -172.691    -438.699
  C      108.366    -173.235    -441.203
  O      108.854    -172.299    -440.252
  O      107.184    -172.484    -438.369
  O      109.189    -174.069    -438.352
  H      106.779    -173.338    -438.123
  H      108.507    -172.847    -442.190
  H      107.324    -173.406    -441.033
  H      108.900    -174.157    -441.102

 6  7  8  9  10  11  12  13  14  15  25  28  32  33  34  35 0
 6-311+G(2d,p)
 ****
 36  39  40 0
 6-311+G(2d,p)
 ****
 1  2  3  4  5  16  17  18  19  20  21  22  23  24 0
 3-21G
 ****
 26  27  29  30  31  37  38  41  42  43  44  45  46  47 0
 3-21G
 ****
 48 0
 3-21G
 ****


