%nproc=1
%NoSave
%Mem=1900MB
#P OB98/GEN NMR

erre ene a

0 1
  C     1258.342     481.410    -497.220
  O     1259.183     482.539    -497.184
  H     1257.355     481.715    -497.589
  H     1258.215     480.988    -496.215
  H     1258.740     480.644    -497.885
  P     1260.662     482.373    -496.607
  C     1261.826     483.040    -494.383
  O     1260.601     482.796    -495.052
  C     1261.585     483.519    -492.954
  O     1260.901     484.791    -492.977
  C     1260.695     482.597    -492.120
  O     1261.418     481.457    -491.696
  C     1260.265     483.548    -491.002
  O     1261.313     483.692    -490.035
  C     1260.066     484.863    -491.798
  N     1258.667     485.092    -492.161
  C     1257.756     485.178    -491.101
  O     1258.129     485.024    -489.937
  N     1256.434     485.403    -491.401
  C     1256.063     485.577    -492.617
  N     1254.726     485.812    -492.850
  C     1256.984     485.564    -493.767
  C     1258.253     485.304    -493.468
  O     1261.771     483.044    -497.372
  O     1260.883     480.779    -496.537
  H     1261.095     484.463    -489.494
  H     1261.316     480.464    -497.339
  H     1256.640     485.721    -494.773
  H     1259.017     485.272    -494.252
  H     1260.408     485.721    -491.199
  H     1259.391     483.194    -490.476
  H     1259.796     482.309    -492.683
  H     1262.549     483.676    -492.474
  H     1254.130     485.822    -492.022
  H     1262.353     483.793    -494.959
  H     1254.342     486.124    -493.737
  H     1262.442     482.121    -494.369
  P     1260.685     480.084    -491.337
  C     1259.860     479.102    -489.094
  O     1260.096     480.286    -489.869
  O     1261.506     478.858    -491.534
  O     1259.365     480.116    -492.239
  H     1259.577     479.876    -493.181
  H     1259.468     479.375    -488.137
  H     1260.780     478.571    -488.964
  H     1259.156     478.477    -489.603

 6  7  8  9  10  11  12  13  14  15  16  26  30  31  32  33  35 0
 6-311+G(2d,p)
 ****
 37  38 0
 6-311+G(2d,p)
 ****
 1  2  3  4  5  17  18  19  20  21  22  23  24  25 0
 3-21G
 ****
 27  28  29  34  36  39  40  41  42  43  44  45  46 0
 3-21G
 ****


