%nproc=1
%NoSave
%Mem=1900MB
#P OB98/GEN NMR

erre ene a

0 1
  C     -176.615     252.334    -132.369
  O     -176.666     251.180    -133.179
  H     -176.653     253.216    -133.015
  H     -175.677     252.348    -131.808
  H     -177.459     252.373    -131.673
  P     -177.082     249.787    -132.511
  C     -175.282     247.943    -132.342
  O     -175.783     249.161    -131.802
  C     -174.196     248.194    -133.389
  O     -173.311     249.239    -132.933
  C     -173.328     246.957    -133.643
  O     -173.840     246.068    -134.618
  C     -172.013     247.585    -134.106
  O     -172.012     247.799    -135.527
  C     -171.976     248.922    -133.359
  N     -167.589     250.574    -131.315
  C     -168.043     250.708    -132.617
  N     -167.203     251.325    -133.475
  N     -169.203     250.260    -133.019
  C     -169.886     249.577    -132.071
  C     -169.527     249.364    -130.757
  C     -168.277     249.928    -130.295
  O     -167.838     249.852    -129.154
  N     -170.456     248.590    -130.100
  C     -171.326     248.270    -131.041
  N     -171.064     248.910    -132.229
  O     -177.289     248.816    -133.771
  O     -178.319     249.822    -131.664
  H     -172.690     248.472    -135.730
  H     -177.975     248.156    -133.566
  H     -166.701     250.967    -131.053
  H     -172.179     247.615    -130.900
  H     -171.655     249.738    -134.021
  H     -171.169     246.925    -133.886
  H     -166.269     251.612    -133.239
  H     -173.137     246.419    -132.706
  H     -167.419     251.277    -134.473
  H     -174.664     248.549    -134.318
  H     -176.132     247.434    -132.799
  H     -174.900     247.302    -131.543
  P     -173.506     244.505    -134.563
  C     -171.819     243.654    -136.390
  O     -172.035     244.284    -135.145
  O     -174.449     243.894    -135.704
  O     -173.723     243.847    -133.241
  H     -175.255     243.512    -135.310
  H     -170.769     243.608    -136.589
  H     -172.304     244.214    -137.162
  H     -172.221     242.663    -136.363

 6  7  8  9  10  11  12  13  14  15  26  29  33  34 0
 6-311+G(2d,p)
 ****
 36  38  39  40  41 0
 6-311+G(2d,p)
 ****
 1  2  3  4  5  16  17  18  19  20  21  22  23  24  25 0
 3-21G
 ****
 27  28  30  31  32  35  37  42  43  44  45  46  47 0
 3-21G
 ****
 48  49 0
 3-21G
 ****


