%nproc=1
%NoSave
%Mem=1900MB
#P OB98/GEN NMR

erre ene a

0 1
  C       87.670    -494.616    -353.276
  O       87.326    -494.635    -351.903
  H       87.233    -493.724    -353.732
  H       87.273    -495.497    -353.785
  H       88.756    -494.573    -353.398
  P       87.848    -495.857    -351.008
  C       88.582    -496.141    -348.548
  O       87.990    -495.283    -349.518
  C       89.203    -495.308    -347.428
  O       90.468    -494.762    -347.850
  C       88.346    -494.122    -346.990
  O       87.327    -494.548    -346.098
  C       89.398    -493.253    -346.323
  O       89.713    -493.784    -345.021
  C       90.596    -493.434    -347.274
  N       91.488    -488.597    -348.505
  C       91.464    -489.209    -347.263
  N       91.657    -488.400    -346.200
  N       91.242    -490.483    -347.091
  C       90.991    -491.150    -348.237
  C       90.974    -490.650    -349.525
  C       91.272    -489.250    -349.715
  O       91.323    -488.674    -350.799
  N       90.616    -491.616    -350.429
  C       90.456    -492.699    -349.699
  N       90.660    -492.467    -348.362
  O       89.077    -496.564    -351.502
  O       86.588    -496.836    -350.910
  H       90.318    -493.145    -344.601
  H       86.612    -497.510    -351.617
  H       91.644    -487.604    -348.579
  H       90.198    -493.682    -350.094
  H       91.557    -493.390    -346.748
  H       89.077    -492.223    -346.186
  H       91.543    -487.396    -346.260
  H       87.939    -493.575    -347.843
  H       91.595    -488.818    -345.283
  H       89.403    -495.980    -346.586
  H       89.352    -496.730    -349.054
  H       87.834    -496.816    -348.132
  P       86.197    -493.529    -345.584
  C       83.912    -493.966    -344.458
  O       84.885    -494.428    -345.389
  O       86.006    -492.321    -346.443
  O       86.613    -493.197    -344.079
  H       87.233    -492.427    -343.996
  H       83.094    -494.655    -344.426
  H       83.556    -493.004    -344.762
  H       84.355    -493.892    -343.487

 6  7  8  9  10  11  12  13  14  15  26  29  33  34 0
 6-311+G(2d,p)
 ****
 36  38  39  40  41 0
 6-311+G(2d,p)
 ****
 1  2  3  4  5  16  17  18  19  20  21  22  23  24  25 0
 3-21G
 ****
 27  28  30  31  32  35  37  42  43  44  45  46  47 0
 3-21G
 ****
 48  49 0
 3-21G
 ****


