%nproc=1
%NoSave
%Mem=1900MB
#P OB98/GEN NMR

erre ene a

0 1
  C      301.126     394.227    -655.825
  O      300.084     393.275    -655.718
  H      301.695     394.225    -654.883
  H      300.725     395.231    -655.984
  H      301.801     393.961    -656.637
  P      298.951     393.266    -656.857
  C      300.249     391.552    -658.297
  O      299.716     392.878    -658.217
  C      299.673     390.795    -659.487
  O      300.077     391.424    -660.725
  C      300.157     389.358    -659.596
  O      299.667     388.505    -658.585
  C      299.881     389.028    -661.055
  O      298.560     388.572    -661.296
  C      300.088     390.403    -661.741
  N      301.315     390.441    -662.536
  C      301.189     390.048    -663.864
  O      300.127     389.663    -664.357
  N      302.335     390.071    -664.611
  C      303.582     390.391    -664.142
  O      304.583     390.345    -664.852
  C      303.656     390.776    -662.722
  C      302.536     390.774    -661.996
  O      298.128     394.517    -656.965
  O      298.091     391.960    -656.534
  H      297.949     389.273    -660.972
  H      297.222     391.986    -656.995
  H      302.262     389.800    -665.573
  H      304.635     391.026    -662.317
  H      302.574     391.058    -660.942
  H      299.248     390.630    -662.410
  H      300.557     388.253    -661.430
  H      301.246     389.364    -659.487
  H      298.576     390.842    -659.425
  H      299.981     391.036    -657.366
  H      301.346     391.604    -658.360
  P      300.608     387.733    -657.545
  C      300.391     389.267    -655.471
  O      301.214     388.816    -656.520
  O      301.510     386.686    -658.112
  O      299.515     386.979    -656.629
  H      299.894     386.124    -656.352
  H      300.927     389.978    -654.878
  H      300.105     388.437    -654.860
  H      299.516     389.729    -655.878

 6  7  8  9  10  11  12  13  14  15  16  26  31  32  33  34  35 0
 6-311+G(2d,p)
 ****
 36  37 0
 6-311+G(2d,p)
 ****
 1  2  3  4  5  17  18  19  20  21  22  23  24  25 0
 3-21G
 ****
 27  28  29  30  38  39  40  41  42  43  44  45 0
 3-21G
 ****


