%nproc=1
%NoSave
%Mem=1900MB
#P OB98/GEN NMR

erre ene a

0 1
  C      455.849    -314.979     261.051
  O      456.959    -314.523     260.305
  H      455.059    -315.280     260.360
  H      455.469    -314.181     261.694
  H      456.134    -315.841     261.658
  P      458.198    -313.934     261.136
  C      458.594    -311.881     262.678
  O      457.691    -312.583     261.833
  C      458.128    -310.440     262.831
  O      456.879    -310.399     263.565
  C      459.086    -309.560     263.628
  O      460.192    -309.117     262.860
  C      458.169    -308.417     264.024
  O      458.072    -307.428     262.987
  C      456.819    -309.128     264.241
  N      456.510    -309.274     265.660
  C      456.067    -308.124     266.305
  O      455.928    -307.043     265.734
  N      455.814    -308.248     267.644
  C      456.009    -309.370     268.393
  O      455.814    -309.398     269.604
  C      456.496    -310.552     267.666
  C      456.725    -310.452     266.352
  O      459.196    -313.426     259.988
  O      458.856    -314.908     262.056
  H      459.953    -314.032     259.918
  H      458.931    -306.965     262.975
  H      455.485    -307.427     268.126
  H      456.663    -311.459     268.232
  H      457.096    -311.304     265.793
  H      456.008    -308.561     263.771
  H      458.531    -307.912     264.914
  H      459.418    -310.080     264.533
  H      457.958    -310.018     261.833
  H      459.595    -311.886     262.237
  H      458.638    -312.389     263.651
  P      461.520    -308.682     263.644
  C      462.067    -306.692     265.278
  O      461.097    -307.432     264.555
  O      462.373    -308.042     262.448
  O      462.181    -309.811     264.358
  H      461.800    -307.692     261.743
  H      461.585    -305.905     265.819
  H      462.777    -306.273     264.596
  H      462.571    -307.340     265.964

 6  7  8  9  10  11  12  13  14  15  16  27  31  32  33  34  35 0
 6-311+G(2d,p)
 ****
 36  37 0
 6-311+G(2d,p)
 ****
 1  2  3  4  5  17  18  19  20  21  22  23  24  25 0
 3-21G
 ****
 26  28  29  30  38  39  40  41  42  43  44  45 0
 3-21G
 ****


