%nproc=1
%NoSave
%Mem=1900MB
#P OB98/GEN NMR

erre ene a

0 1
  C     -352.611     248.607     -94.302
  O     -353.698     249.107     -93.554
  H     -352.746     248.894     -95.347
  H     -352.586     247.516     -94.236
  H     -351.663     249.019     -93.947
  P     -353.598     249.114     -91.957
  C     -352.596     250.760     -90.239
  O     -353.196     250.604     -91.515
  C     -352.038     252.178     -90.069
  O     -351.193     252.490     -91.206
  C     -353.158     253.224     -90.048
  O     -352.799     254.379     -89.296
  C     -353.288     253.607     -91.511
  O     -353.877     254.893     -91.706
  C     -351.836     253.517     -91.979
  N     -348.861     253.720     -96.115
  C     -348.685     254.316     -94.881
  N     -347.564     255.063     -94.730
  N     -349.536     254.209     -93.896
  C     -350.643     253.496     -94.212
  C     -350.942     252.876     -95.404
  C     -349.975     252.972     -96.476
  O     -350.094     252.483     -97.595
  N     -352.164     252.251     -95.351
  C     -352.604     252.495     -94.132
  N     -351.705     253.226     -93.393
  O     -352.255     248.292     -91.658
  O     -354.772     248.530     -91.233
  H     -354.623     254.970     -91.086
  H     -352.270     247.935     -90.753
  H     -348.162     253.808     -96.829
  H     -353.552     252.154     -93.733
  H     -351.309     254.460     -91.788
  H     -353.939     252.878     -92.000
  H     -346.992     255.326     -95.518
  H     -354.095     252.828     -89.662
  H     -347.574     255.745     -93.968
  H     -351.402     252.228     -89.179
  H     -351.795     250.020     -90.168
  H     -353.317     250.531     -89.450
  P     -352.649     254.245     -87.706
  C     -351.405     252.375     -86.303
  O     -351.399     253.315     -87.356
  O     -353.911     253.365     -87.279
  O     -352.604     255.553     -86.978
  H     -354.513     253.885     -86.712
  H     -350.460     251.875     -86.266
  H     -352.181     251.658     -86.470
  H     -351.579     252.880     -85.376

 6  7  8  9  10  11  12  13  14  15  26  29  33  34 0
 6-311+G(2d,p)
 ****
 36  38  39  40  41 0
 6-311+G(2d,p)
 ****
 1  2  3  4  5  16  17  18  19  20  21  22  23  24  25 0
 3-21G
 ****
 27  28  30  31  32  35  37  42  43  44  45  46  47 0
 3-21G
 ****
 48  49 0
 3-21G
 ****


