%nproc=1
%NoSave
%Mem=1900MB
#P OB98/GEN NMR

erre ene a

0 1
  C     -179.760      32.723     413.614
  O     -180.656      31.765     413.086
  P     -180.182      30.232     413.069
  C     -180.291      30.382     410.463
  O     -179.576      29.938     411.612
  C     -179.319      31.021     409.464
  O     -178.755      32.232     410.024
  C     -178.125      30.138     409.121
  O     -178.481      29.143     408.176
  C     -177.132      31.157     408.591
  O     -177.388      31.451     407.206
  C     -177.429      32.386     409.473
  N     -176.426      32.582     410.513
  C     -175.415      33.497     410.222
  O     -175.344      34.097     409.146
  N     -174.465      33.667     411.190
  C     -174.392      32.989     412.378
  O     -173.487      33.151     413.182
  C     -175.476      32.020     412.620
  C     -176.418      31.859     411.690
  O     -181.556      29.406     413.076
  O     -179.293      29.843     414.198
  H     -176.950      32.305     407.015
  H     -181.448      28.587     413.600
  H     -173.736      34.340     411.014
  H     -175.446      31.462     413.550
  H     -177.209      31.132     411.839
  H     -177.464      33.290     408.856
  H     -176.098      30.795     408.654
  H     -177.720      29.683     410.033
  H     -179.877      31.290     408.561
  H     -181.047      31.112     410.762
  H     -180.799      29.528     410.008
  P     -178.483      27.626     408.684
  C     -176.483      27.089     407.083
  O     -177.000      27.086     408.401
  O     -179.397      26.927     407.571
  O     -178.984      27.475     410.089
  H     -179.302      27.356     406.702
  H     -176.834      27.960     406.523
  H     -176.781      26.177     406.575
  H     -175.387      27.128     407.137
  H     -180.205      33.695     413.562
  H     -178.854      32.715     413.045
  H     -179.543      32.484     414.634

 3  4  5  6  7  8  9  10  11  12  13  23  28  29  30  31  32 0
 6-311+G(2d,p)
 ****
 33  34 0
 6-311+G(2d,p)
 ****
 1  2  14  15  16  17  18  19  20  21  22  24  25  26 0
 3-21G
 ****
 27  35  36  37  38  39  40  41  42  43  44  45 0
 3-21G
 ****


