%nproc=1
%NoSave
%Mem=1900MB
#P OB98/GEN NMR

erre ene a

0 1
  C      -11.486     326.836     -83.653
  O      -10.797     325.601     -83.766
  P      -11.257     324.326     -82.912
  C       -8.949     323.685     -81.966
  O       -9.991     323.333     -82.864
  C       -7.586     323.280     -82.534
  O       -7.483     321.833     -82.500
  C       -7.371     323.724     -83.972
  O       -5.996     324.080     -84.145
  C       -7.651     322.480     -84.795
  O       -6.952     322.519     -86.054
  C       -7.198     321.374     -83.839
  N       -7.958     317.448     -87.054
  C       -7.153     318.526     -87.132
  N       -7.018     319.541     -86.255
  C       -7.794     319.341     -85.172
  C       -8.661     318.283     -84.949
  C       -8.736     317.301     -85.954
  N       -9.550     316.192     -85.866
  N       -9.312     318.430     -83.735
  C       -8.825     319.542     -83.231
  N       -7.893     320.123     -84.057
  O      -12.528     323.690     -83.354
  O      -11.349     324.863     -81.406
  H       -5.996     322.594     -85.854
  H      -12.107     324.459     -80.946
  H       -6.534     318.586     -88.024
  H       -9.114     319.974     -82.285
  H       -6.121     321.192     -83.911
  H       -8.721     322.416     -85.012
  H       -8.013     324.565     -84.261
  H       -6.805     323.681     -81.875
  H       -9.116     323.161     -81.018
  H       -9.444     315.481     -86.576
  H       -9.992     315.994     -84.977
  H       -8.984     324.765     -81.775
  P       -5.703     325.232     -85.236
  C       -4.178     323.617     -86.608
  O       -4.287     324.822     -85.887
  O       -5.808     326.602     -84.652
  O       -6.791     324.888     -86.357
  H       -7.056     323.947     -86.325
  H       -3.143     323.498     -86.939
  H       -4.822     323.649     -87.493
  H       -4.457     322.763     -85.981
  H      -11.031     327.559     -84.298
  H      -11.437     327.180     -82.641
  H      -12.509     326.701     -83.935

 3  4  5  6  7  8  9  10  11  12  22  25  29  30  31  32 0
 6-311+G(2d,p)
 ****
 33  36  37 0
 6-311+G(2d,p)
 ****
 1  2  13  14  15  16  17  18  19  20  21  23  24  26 0
 3-21G
 ****
 27  28  34  35  38  39  40  41  42  43  44  45  46  47  48 0
 3-21G
 ****


