%nproc=1
%NoSave
%Mem=1900MB
#P OB98/GEN NMR

erre ene a

0 1
  C      -42.673     546.804     -94.680
  O      -43.443     547.084     -95.835
  P      -43.448     546.078     -97.080
  C      -42.505     547.185     -99.275
  O      -42.258     546.491     -98.070
  C      -42.893     548.638     -98.950
  O      -41.905     549.231     -98.082
  C      -42.984     549.489    -100.213
  O      -44.325     549.542    -100.681
  C      -42.459     550.828     -99.742
  O      -43.492     551.575     -99.061
  C      -41.354     550.395     -98.744
  N      -40.027     550.039     -99.286
  C      -39.307     550.974    -100.018
  O      -39.699     552.123    -100.235
  N      -38.115     550.533    -100.528
  C      -37.567     549.295    -100.343
  O      -36.634     548.839    -100.993
  C      -38.244     548.455     -99.344
  C      -39.433     548.846     -98.883
  O      -44.761     546.507     -97.885
  O      -43.452     544.624     -96.737
  H      -44.287     551.529     -99.623
  H      -45.499     545.906     -97.681
  H      -37.651     551.159    -101.187
  H      -37.773     547.523     -99.056
  H      -39.963     548.227     -98.168
  H      -41.197     551.172     -97.977
  H      -42.147     551.453    -100.588
  H      -42.312     549.098    -100.985
  H      -43.854     548.636     -98.418
  H      -43.313     546.690     -99.833
  H      -41.616     547.164     -99.912
  P      -44.634     550.141    -102.134
  C      -45.588     552.512    -102.349
  O      -44.463     551.729    -101.984
  O      -45.908     549.690    -102.767
  O      -43.354     549.693    -102.996
  H      -43.565     548.882    -103.505
  H      -45.415     553.546    -102.033
  H      -46.495     552.144    -101.871
  H      -45.707     552.490    -103.442
  H      -42.802     547.590     -93.966
  H      -41.640     546.733     -94.949
  H      -42.995     545.878     -94.253

 3  4  5  6  7  8  9  10  11  12  13  23  28  29  30  31  32 0
 6-311+G(2d,p)
 ****
 33  34 0
 6-311+G(2d,p)
 ****
 1  2  14  15  16  17  18  19  20  21  22  24  25  26  27 0
 3-21G
 ****
 35  36  37  38  39  40  41  42  43  44  45 0
 3-21G
 ****


