%nproc=1
%NoSave
%Mem=1900MB
#P OB98/GEN NMR

erre ene a

0 1
  C      163.435    -343.998     161.581
  O      162.192    -344.644     161.856
  P      162.222    -346.125     162.468
  C      160.421    -345.505     164.211
  O      161.714    -346.063     163.988
  C      159.830    -346.019     165.535
  O      159.725    -347.463     165.471
  C      160.677    -345.718     166.781
  O      160.457    -344.489     167.466
  C      160.220    -346.834     167.721
  O      158.996    -346.449     168.378
  C      159.956    -348.012     166.789
  N      161.660    -352.491     168.572
  C      160.512    -351.810     168.799
  N      160.139    -350.619     168.282
  C      161.075    -350.144     167.444
  C      162.286    -350.735     167.118
  C      162.571    -351.968     167.725
  N      163.738    -352.663     167.509
  N      162.991    -349.947     166.232
  C      162.221    -348.887     166.044
  N      161.051    -348.966     166.741
  O      163.479    -346.899     162.243
  O      160.984    -346.826     161.726
  H      159.217    -345.692     168.949
  H      161.214    -347.755     161.528
  H      159.807    -352.272     169.484
  H      162.477    -348.045     165.411
  H      159.055    -348.573     167.068
  H      160.950    -347.032     168.514
  H      161.744    -345.829     166.562
  H      158.820    -345.610     165.663
  H      159.758    -345.773     163.386
  H      163.887    -353.518     168.020
  H      164.459    -352.255     166.926
  H      160.528    -344.419     164.194
  P      161.540    -343.316     167.447
  C      159.855    -341.352     167.053
  O      160.900    -342.154     166.547
  O      162.912    -343.728     167.041
  O      161.437    -342.720     168.929
  H      160.603    -342.263     169.122
  H      159.712    -340.498     166.387
  H      160.090    -340.985     168.055
  H      158.928    -341.936     167.085
  H      163.249    -343.024     161.179
  H      163.988    -344.577     160.871
  H      163.999    -343.909     162.486

 3  4  5  6  7  8  9  10  11  12  22  25  29  30  31  32 0
 6-311+G(2d,p)
 ****
 33  36  37 0
 6-311+G(2d,p)
 ****
 1  2  13  14  15  16  17  18  19  20  21  23  24  26 0
 3-21G
 ****
 27  28  34  35  38  39  40  41  42  43  44  45  46  47  48 0
 3-21G
 ****


