%nproc=1
%NoSave
%Mem=1900MB
#P OB98/GEN NMR

erre ene a

0 1
  C      -42.656     270.370     -95.269
  O      -43.685     270.456     -96.231
  H      -42.350     269.321     -95.175
  H      -43.011     270.719     -94.297
  H      -41.796     270.964     -95.590
  P      -44.359     271.898     -96.449
  C      -45.594     271.288     -98.655
  O      -44.586     272.070     -98.032
  C      -45.159     270.957    -100.085
  O      -43.916     270.218    -100.054
  C      -46.135     270.062    -100.832
  O      -47.248     270.774    -101.348
  C      -45.243     269.524    -101.940
  O      -45.167     270.429    -103.055
  C      -43.880     269.393    -101.244
  N      -43.565     268.007    -100.930
  C      -42.238     267.623    -101.140
  O      -41.380     268.392    -101.569
  N      -41.952     266.308    -100.889
  C      -42.837     265.355    -100.497
  O      -42.520     264.181    -100.340
  C      -44.221     265.809    -100.301
  C      -44.528     267.089    -100.524
  O      -43.163     272.907     -96.116
  O      -45.572     272.158     -95.610
  H      -43.321     273.333     -95.248
  H      -44.369     270.160    -103.565
  H      -40.992     266.013    -101.040
  H      -44.960     265.073     -99.990
  H      -45.531     267.453    -100.399
  H      -43.082     269.790    -101.877
  H      -45.618     268.584    -102.327
  H      -46.451     269.229    -100.201
  H      -44.991     271.897    -100.629
  H      -46.528     271.851     -98.698
  H      -45.755     270.379     -98.072
  P      -48.707     270.400    -100.764
  C      -49.613     272.821    -101.245
  O      -49.362     271.789    -100.304
  O      -48.296     269.675     -99.401
  O      -49.521     269.578    -101.706
  H      -47.433     269.991     -99.057
  H      -50.050     273.661    -100.746
  H      -50.286     272.463    -101.996
  H      -48.693     273.118    -101.703

 6  7  8  9  10  11  12  13  14  15  16  27  31  32  33  34  35 0
 6-311+G(2d,p)
 ****
 36  37 0
 6-311+G(2d,p)
 ****
 1  2  3  4  5  17  18  19  20  21  22  23  24  25 0
 3-21G
 ****
 26  28  29  30  38  39  40  41  42  43  44  45 0
 3-21G
 ****


