%nproc=1
%NoSave
%Mem=1900MB
#P OB98/GEN NMR

erre ene a

0 1
  C      538.498     -14.566     -45.350
  O      539.373     -13.439     -45.345
  P      538.982     -12.102     -44.548
  C      541.159     -10.765     -44.445
  O      539.888     -10.885     -45.079
  C      542.290     -11.486     -45.198
  O      542.297     -11.120     -46.600
  C      543.694     -11.220     -44.657
  O      544.429     -12.432     -44.860
  C      544.195     -10.120     -45.579
  O      545.606      -9.996     -45.563
  C      543.583     -10.567     -46.915
  N      543.486      -9.466     -47.873
  C      544.667      -9.053     -48.485
  O      545.743      -9.566     -48.169
  N      544.619      -8.038     -49.408
  C      543.495      -7.424     -49.626
  N      543.511      -6.402     -50.528
  C      542.236      -7.768     -48.934
  C      542.306      -8.799     -48.089
  O      538.949     -12.248     -43.064
  O      537.519     -11.737     -45.104
  H      545.997     -10.814     -45.940
  H      537.013     -11.281     -44.405
  H      541.329      -7.210     -49.123
  H      541.436      -9.137     -47.538
  H      544.187     -11.363     -47.366
  H      543.770      -9.159     -45.270
  H      543.709     -10.928     -43.604
  H      542.070     -12.564     -45.153
  H      544.399      -6.176     -50.955
  H      541.084     -11.172     -43.433
  H      542.722      -5.794     -50.679
  H      541.403      -9.697     -44.349
  P      544.666     -13.491     -43.681
  C      544.220     -15.731     -44.823
  O      545.209     -14.829     -44.364
  O      543.504     -13.682     -42.768
  O      545.945     -12.935     -42.886
  H      545.984     -13.361     -42.008
  H      544.697     -16.498     -45.447
  H      543.461     -15.218     -45.405
  H      543.748     -16.225     -43.968
  H      538.932     -15.352     -45.932
  H      537.557     -14.285     -45.776
  H      538.348     -14.906     -44.346

 3  4  5  6  7  8  9  10  11  12  13  23  27  28  29  30  32 0
 6-311+G(2d,p)
 ****
 34  35 0
 6-311+G(2d,p)
 ****
 1  2  14  15  16  17  18  19  20  21  22  24  25  26 0
 3-21G
 ****
 31  33  36  37  38  39  40  41  42  43  44  45  46 0
 3-21G
 ****


