%nproc=1
%NoSave
%Mem=1900MB
#P OB98/GEN NMR

erre ene a

0 1
  C      -80.358    -311.159     100.683
  O      -80.172    -312.147     101.674
  H      -81.380    -310.778     100.755
  H      -80.208    -311.577      99.684
  H      -79.666    -310.325     100.844
  P      -78.781    -312.944     101.704
  C      -79.473    -315.411     102.047
  O      -79.003    -314.218     102.653
  C      -79.483    -316.569     103.055
  O      -78.109    -316.883     103.425
  C      -80.243    -316.253     104.356
  O      -80.778    -317.488     104.849
  C      -79.119    -315.762     105.248
  O      -79.510    -315.718     106.595
  C      -78.009    -316.743     104.858
  N      -76.691    -316.290     105.274
  C      -76.500    -316.111     106.646
  O      -77.425    -316.322     107.434
  N      -75.281    -315.670     107.092
  C      -74.356    -315.368     106.240
  N      -73.174    -314.919     106.744
  C      -74.535    -315.485     104.775
  C      -75.714    -315.953     104.367
  O      -77.571    -312.130     102.023
  O      -78.678    -313.595     100.243
  H      -79.940    -316.563     106.865
  H      -78.028    -313.101      99.708
  H      -73.737    -315.200     104.103
  H      -75.939    -316.073     103.312
  H      -78.191    -317.732     105.300
  H      -78.829    -314.741     104.973
  H      -81.044    -315.523     104.215
  H      -79.893    -317.460     102.564
  H      -73.099    -314.846     107.752
  H      -78.797    -315.646     101.215
  H      -72.391    -314.635     106.174
  H      -80.483    -315.263     101.649
  P      -82.240    -318.018     104.466
  C      -82.536    -319.061     106.809
  O      -82.615    -319.265     105.402
  O      -82.432    -318.275     103.006
  O      -83.244    -316.870     104.965
  H      -84.025    -316.854     104.379
  H      -82.809    -319.963     107.316
  H      -83.204    -318.275     107.094
  H      -81.535    -318.792     107.075

 6  7  8  9  10  11  12  13  14  15  16  26  30  31  32  33  35 0
 6-311+G(2d,p)
 ****
 37  38 0
 6-311+G(2d,p)
 ****
 1  2  3  4  5  17  18  19  20  21  22  23  24  25 0
 3-21G
 ****
 27  28  29  34  36  39  40  41  42  43  44  45  46 0
 3-21G
 ****


