%nproc=1
%NoSave
%Mem=1900MB
#P OB98/GEN NMR

erre ene a

0 1
  C       14.285     854.449    -281.903
  O       14.938     853.207    -282.104
  P       15.207     852.288    -280.818
  C       12.906     851.124    -280.673
  O       13.784     852.075    -280.095
  C       12.704     849.931    -279.737
  O       12.074     850.393    -278.509
  C       11.831     848.807    -280.316
  O       12.431     847.538    -280.011
  C       10.544     848.918    -279.518
  O        9.844     847.677    -279.459
  C       11.089     849.398    -278.169
  N        9.190     849.094    -273.490
  C       10.377     848.582    -274.005
  N       11.125     847.830    -273.157
  N       10.786     848.776    -275.227
  C        9.952     849.565    -275.945
  C        8.759     850.135    -275.553
  C        8.294     849.858    -274.212
  O        7.214     850.209    -273.730
  N        8.210     850.897    -276.563
  C        9.053     850.767    -277.571
  N       10.107     849.937    -277.263
  O       15.994     853.284    -279.825
  O       16.000     851.048    -281.070
  H        9.687     847.393    -280.381
  H       16.848     852.893    -279.577
  H        8.920     848.901    -272.545
  H        8.940     851.238    -278.531
  H       11.605     848.574    -277.655
  H        9.894     849.668    -279.980
  H       10.887     847.678    -272.185
  H       11.662     848.889    -281.393
  H       11.995     847.475    -273.498
  H       13.700     849.541    -279.448
  H       13.325     850.766    -281.629
  H       11.940     851.601    -280.870
  P       12.219     846.378    -281.107
  C       14.392     847.124    -282.344
  O       13.000     846.872    -282.415
  O       10.679     846.520    -281.512
  O       12.568     845.013    -280.614
  H       10.330     845.677    -281.852
  H       14.818     846.768    -281.394
  H       14.578     848.190    -282.438
  H       14.901     846.597    -283.166
  H       14.174     854.950    -282.842
  H       14.868     855.056    -281.242
  H       13.320     854.279    -281.473

 3  4  5  6  7  8  9  10  11  12  23  26  30  31  33  0
 6-311+G(2d,p)
 ****
 35  36  37  38 0
 6-311+G(2d,p)
 ****
 1  2  13  14  15  16  17  18  19  20  21  22  24  25  27  28  29 0
 3-21G
 ****
 32  34  39  40  41  42  43  44  45  46  47  48  49 0
 3-21G
 ****


