%nproc=1
%NoSave
%Mem=1900MB
#P OB98/GEN NMR

erre ene a

0 1
  C     -120.558    -449.945    -268.853
  O     -121.762    -449.237    -269.070
  H     -120.549    -450.824    -269.501
  H     -120.498    -450.274    -267.812
  H     -119.698    -449.318    -269.097
  P     -121.975    -447.881    -268.229
  C     -123.027    -449.002    -266.131
  O     -121.902    -448.334    -266.686
  C     -123.435    -448.344    -264.807
  O     -124.750    -448.814    -264.429
  C     -122.478    -448.666    -263.650
  O     -122.239    -447.476    -262.898
  C     -123.223    -449.693    -262.820
  O     -122.813    -449.684    -261.454
  C     -124.686    -449.306    -263.076
  N     -125.592    -450.435    -262.880
  C     -126.575    -450.293    -261.890
  O     -126.640    -449.254    -261.225
  N     -127.424    -451.339    -261.642
  C     -127.265    -452.458    -262.276
  N     -128.124    -453.469    -261.970
  C     -126.213    -452.673    -263.288
  C     -125.427    -451.627    -263.540
  O     -123.524    -447.561    -268.457
  O     -121.062    -446.757    -268.590
  H     -123.432    -450.258    -260.950
  H     -123.748    -446.642    -268.174
  H     -126.112    -453.630    -263.780
  H     -124.625    -451.695    -264.268
  H     -124.993    -448.492    -262.401
  H     -123.030    -450.692    -263.223
  H     -121.519    -449.064    -263.991
  H     -123.517    -447.262    -264.964
  H     -128.827    -453.292    -261.259
  H     -122.769    -450.052    -265.957
  H     -128.076    -454.392    -262.378
  H     -123.862    -448.945    -266.836
  P     -121.122    -446.480    -263.486
  C     -119.173    -447.222    -261.942
  O     -119.691    -447.173    -263.270
  O     -121.126    -445.259    -262.449
  O     -121.395    -446.038    -264.886
  H     -121.647    -444.514    -262.800
  H     -118.220    -447.708    -261.949
  H     -119.847    -447.768    -261.316
  H     -119.063    -446.227    -261.565

 6  7  8  9  10  11  12  13  14  15  16  26  30  31  32  33  35 0
 6-311+G(2d,p)
 ****
 37  38 0
 6-311+G(2d,p)
 ****
 1  2  3  4  5  17  18  19  20  21  22  23  24  25 0
 3-21G
 ****
 27  28  29  34  36  39  40  41  42  43  44  45  46 0
 3-21G
 ****


