%nproc=1
%NoSave
%Mem=1900MB
#P OB98/GEN NMR

erre ene a

0 1
  C      103.992    -195.507    -138.326
  O      104.754    -194.683    -137.466
  H      104.135    -195.156    -139.357
  H      102.929    -195.439    -138.080
  H      104.324    -196.550    -138.266
  P      104.849    -195.077    -135.909
  C      103.635    -193.482    -134.278
  O      103.502    -194.546    -135.216
  C      103.519    -192.140    -134.995
  O      102.340    -192.122    -135.838
  C      103.375    -190.946    -134.055
  O      104.609    -190.605    -133.469
  C      102.808    -189.901    -135.003
  O      103.850    -189.299    -135.787
  C      101.872    -190.757    -135.890
  N      100.461    -190.664    -135.490
  C       99.909    -189.378    -135.442
  O      100.555    -188.363    -135.683
  N       98.597    -189.324    -135.070
  C       97.826    -190.365    -134.643
  O       96.672    -190.237    -134.239
  C       98.467    -191.688    -134.694
  C       99.741    -191.781    -135.107
  O      106.113    -194.681    -135.220
  O      104.649    -196.666    -135.909
  H      104.457    -188.865    -135.158
  H      105.513    -197.104    -135.756
  H       98.182    -188.401    -135.020
  H       97.891    -192.547    -134.379
  H      100.230    -192.743    -135.144
  H      101.948    -190.437    -136.940
  H      102.301    -189.090    -134.476
  H      102.623    -191.166    -133.287
  H      104.399    -192.016    -135.644
  H      104.622    -193.554    -133.800
  H      102.856    -193.586    -133.512
  P      104.648    -189.694    -132.149
  C      105.887    -187.529    -132.762
  O      104.619    -188.164    -132.613
  O      105.711    -190.042    -131.158
  O      103.191    -189.903    -131.508
  H      103.285    -190.291    -130.610
  H      105.744    -186.515    -133.074
  H      106.463    -188.050    -133.498
  H      106.406    -187.545    -131.826

 6  7  8  9  10  11  12  13  14  15  16  26  31  32  33  34  35 0
 6-311+G(2d,p)
 ****
 36  37 0
 6-311+G(2d,p)
 ****
 1  2  3  4  5  17  18  19  20  21  22  23  24  25 0
 3-21G
 ****
 27  28  29  30  38  39  40  41  42  43  44  45 0
 3-21G
 ****


