%nproc=1
%NoSave
%Mem=1900MB
#P OB98/GEN NMR

erre ene a

0 1
  C      254.988    -779.268    -445.812
  O      254.484    -779.435    -444.501
  H      254.316    -778.604    -446.364
  H      255.035    -780.227    -446.330
  H      255.983    -778.818    -445.777
  P      255.265    -780.464    -443.550
  C      253.426    -782.162    -442.852
  O      254.201    -781.023    -442.491
  C      252.334    -782.387    -441.811
  O      252.933    -782.755    -440.547
  C      251.487    -781.151    -441.514
  O      250.501    -780.915    -442.505
  C      250.890    -781.526    -440.171
  O      249.710    -782.333    -440.322
  C      252.030    -782.323    -439.506
  N      252.710    -781.534    -438.479
  C      252.220    -781.681    -437.183
  O      251.272    -782.422    -436.896
  N      252.824    -780.921    -436.221
  C      253.815    -780.005    -436.439
  O      254.274    -779.312    -435.541
  C      254.278    -779.875    -437.825
  C      253.715    -780.635    -438.770
  O      256.206    -779.508    -442.678
  O      256.046    -781.513    -444.265
  H      257.130    -779.588    -442.975
  H      249.275    -782.337    -439.450
  H      252.483    -781.015    -435.279
  H      255.066    -779.153    -438.034
  H      254.032    -780.549    -439.808
  H      251.632    -783.229    -439.035
  H      250.606    -780.638    -439.611
  H      252.136    -780.275    -441.385
  H      251.696    -783.216    -442.143
  H      254.068    -783.049    -442.892
  H      252.994    -781.997    -443.847
  P      250.445    -779.453    -443.171
  C      248.102    -778.455    -442.509
  O      248.891    -779.164    -443.448
  O      251.062    -779.768    -444.609
  O      251.166    -778.417    -442.381
  H      250.919    -780.696    -444.879
  H      247.101    -778.368    -442.878
  H      248.514    -777.479    -442.362
  H      248.095    -778.983    -441.578

 6  7  8  9  10  11  12  13  14  15  16  27  31  32  33  34  35 0
 6-311+G(2d,p)
 ****
 36  37 0
 6-311+G(2d,p)
 ****
 1  2  3  4  5  17  18  19  20  21  22  23  24  25 0
 3-21G
 ****
 26  28  29  30  38  39  40  41  42  43  44  45 0
 3-21G
 ****


