%nproc=1
%NoSave
%Mem=1900MB
#P OB98/GEN NMR

erre ene a

0 1
  C      -71.360    -216.316     101.545
  O      -70.464    -215.918     100.508
  P      -71.011    -215.989      98.998
  C      -69.054    -214.567      98.042
  O      -69.702    -215.832      98.069
  C      -67.609    -214.713      97.571
  O      -66.839    -215.428      98.570
  C      -67.442    -215.507      96.284
  O      -67.700    -214.706      95.128
  C      -65.968    -215.896      96.364
  O      -65.145    -214.793      95.915
  C      -65.771    -216.127      97.873
  N      -63.152    -219.911     100.007
  C      -62.798    -218.592      99.796
  N      -61.572    -218.227     100.246
  N      -63.568    -217.720      99.204
  C      -64.770    -218.212      98.844
  C      -65.242    -219.502      98.992
  C      -64.369    -220.471      99.613
  O      -64.603    -221.676      99.758
  N      -66.530    -219.617      98.522
  C      -66.847    -218.404      98.112
  N      -65.804    -217.528      98.265
  O      -71.765    -214.585      98.813
  O      -71.901    -217.142      98.699
  H      -65.480    -214.537      95.026
  H      -72.447    -214.664      98.120
  H      -62.535    -220.542     100.490
  H      -67.810    -218.127      97.711
  H      -64.823    -215.683      98.217
  H      -65.721    -216.756      95.739
  H      -60.995    -218.810     100.828
  H      -68.066    -216.410      96.293
  H      -61.308    -217.244     100.142
  H      -67.172    -213.705      97.471
  H      -69.056    -214.141      99.058
  H      -69.606    -213.889      97.382
  P      -68.902    -215.191      94.177
  C      -70.412    -213.072      94.086
  O      -69.412    -213.863      93.453
  O      -70.074    -215.541      95.210
  O      -68.558    -216.343      93.295
  H      -70.673    -216.204      94.829
  H      -70.279    -213.063      95.175
  H      -71.404    -213.471      93.845
  H      -70.343    -212.037      93.723
  H      -70.873    -216.221     102.493
  H      -71.651    -217.335     101.394
  H      -72.228    -215.691     101.526

 3  4  5  6  7  8  9  10  11  12  23  26  30  31  33  0
 6-311+G(2d,p)
 ****
 35  36  37  38 0
 6-311+G(2d,p)
 ****
 1  2  13  14  15  16  17  18  19  20  21  22  24  25  27  28  29 0
 3-21G
 ****
 32  34  39  40  41  42  43  44  45  46  47  48  49 0
 3-21G
 ****


