%nproc=1
%NoSave
%Mem=1900MB
#P OB98/GEN NMR

erre ene a

0 1
  C       -5.696     -70.655      54.456
  O       -4.627     -70.447      53.527
  P       -3.463     -71.552      53.483
  C       -2.618     -71.274      51.019
  O       -2.407     -71.021      52.400
  C       -1.971     -70.174      50.181
  O       -2.517     -68.878      50.530
  C       -0.468     -70.045      50.377
  O        0.231     -71.094      49.726
  C       -0.220     -68.657      49.802
  O       -0.152     -68.713      48.369
  C       -1.490     -67.898      50.240
  N       -1.265     -67.011      51.374
  C       -0.393     -65.951      51.149
  O        0.183     -65.769      50.077
  N       -0.185     -65.113      52.210
  C       -0.730     -65.246      53.454
  O       -0.516     -64.457      54.365
  C       -1.604     -66.414      53.646
  C       -1.829     -67.231      52.614
  O       -4.212     -72.759      52.751
  O       -2.911     -71.871      54.831
  H       -4.846     -72.461      52.077
  H        0.747     -69.026      48.147
  H        0.434     -64.331      52.064
  H       -2.033     -66.565      54.628
  H       -2.469     -68.100      52.737
  H       -1.875     -67.294      49.409
  H        0.718     -68.218      50.157
  H       -0.230     -70.052      51.447
  H       -2.199     -70.370      49.125
  H       -3.691     -71.305      50.805
  H       -2.204     -72.256      50.771
  P        0.936     -72.190      50.668
  C        1.287     -73.556      48.467
  O        1.811     -73.121      49.702
  O       -0.314     -73.107      51.065
  O        1.664     -71.601      51.831
  H       -0.892     -73.310      50.311
  H        2.116     -73.864      47.823
  H        0.731     -72.760      47.965
  H        0.631     -74.414      48.629
  H       -6.396     -69.849      54.380
  H       -5.302     -70.693      55.450
  H       -6.189     -71.578      54.232

 3  4  5  6  7  8  9  10  11  12  13  24  28  29  30  31  32 0
 6-311+G(2d,p)
 ****
 33  34 0
 6-311+G(2d,p)
 ****
 1  2  14  15  16  17  18  19  20  21  22  23  25  26  27 0
 3-21G
 ****
 35  36  37  38  39  40  41  42  43  44  45 0
 3-21G
 ****


