%nproc=1
%NoSave
%Mem=1900MB
#P OB98/GEN NMR

erre ene a

0 1
  C      132.223    -415.656     -82.873
  O      131.026    -415.924     -83.572
  H      132.847    -416.553     -82.831
  H      132.772    -414.870     -83.400
  H      131.998    -415.313     -81.857
  P      130.060    -417.051     -82.956
  C      130.479    -419.446     -82.031
  O      130.954    -418.380     -82.847
  C      131.563    -420.506     -81.894
  O      131.809    -421.143     -83.172
  C      132.916    -419.965     -81.434
  O      132.973    -419.782     -80.033
  C      133.829    -421.100     -81.880
  O      133.726    -422.197     -80.956
  C      133.220    -421.480     -83.231
  N      136.375    -421.953     -87.236
  C      135.992    -422.832     -86.280
  N      135.151    -422.627     -85.246
  C      134.692    -421.360     -85.251
  C      135.002    -420.356     -86.148
  C      135.886    -420.694     -87.190
  N      136.292    -419.801     -88.157
  N      134.364    -419.175     -85.810
  C      133.654    -419.483     -84.741
  N      133.827    -420.786     -84.355
  O      129.054    -417.384     -84.159
  O      129.344    -416.674     -81.703
  H      132.810    -422.531     -81.017
  H      128.243    -417.800     -83.812
  H      136.416    -423.826     -86.360
  H      133.005    -418.797     -84.213
  H      133.290    -422.557     -83.439
  H      134.881    -420.807     -81.913
  H      133.193    -419.054     -81.976
  H      131.198    -421.281     -81.203
  H      129.595    -419.886     -82.500
  H      137.066    -420.085     -88.743
  H      136.053    -418.824     -88.045
  H      130.204    -419.049     -81.046
  P      133.732    -418.468     -79.495
  C      136.216    -417.868     -79.010
  O      135.283    -418.870     -79.407
  O      133.276    -418.398     -77.965
  O      133.424    -417.218     -80.241
  H      133.308    -417.476     -77.631
  H      137.202    -418.283     -78.998
  H      135.966    -417.515     -78.031
  H      136.180    -417.053     -79.703

 6  7  8  9  10  11  12  13  14  15  25  28  32  33  34  35 0
 6-311+G(2d,p)
 ****
 36  39  40 0
 6-311+G(2d,p)
 ****
 1  2  3  4  5  16  17  18  19  20  21  22  23  24 0
 3-21G
 ****
 26  27  29  30  31  37  38  41  42  43  44  45  46  47 0
 3-21G
 ****
 48 0
 3-21G
 ****


