%nproc=1
%NoSave
%Mem=1900MB
#P OB98/GEN NMR

erre ene a

0 1
  C      -38.153      11.597       6.035
  O      -37.176      10.775       5.434
  H      -38.987      11.718       5.339
  H      -37.732      12.583       6.247
  H      -38.525      11.144       6.958
  P      -35.927      10.331       6.338
  C      -36.855       8.537       7.968
  O      -36.178       8.799       6.748
  C      -36.657       7.079       8.384
  O      -37.055       6.931       9.772
  C      -37.471       6.085       7.553
  O      -36.683       4.911       7.342
  C      -38.650       5.750       8.447
  O      -39.219       4.474       8.153
  C      -38.025       5.869       9.843
  N      -39.037       6.125      10.863
  C      -39.318       5.079      11.745
  O      -38.731       4.001      11.636
  N      -40.295       5.254      12.691
  C      -40.992       6.347      12.700
  N      -41.967       6.449      13.643
  C      -40.776       7.451      11.745
  C      -39.788       7.278      10.868
  O      -36.162      11.119       7.709
  O      -34.583      10.602       5.748
  H      -39.960       4.316       8.778
  H      -35.314      11.351       8.134
  H      -41.400       8.332      11.775
  H      -39.560       8.031      10.124
  H      -37.488       4.947      10.104
  H      -39.435       6.505       8.318
  H      -37.788       6.489       6.587
  H      -35.586       6.846       8.333
  H      -42.096       5.662      14.269
  H      -37.925       8.723       7.828
  H      -42.599       7.232      13.714
  H      -36.479       9.210       8.745
  P      -35.915       4.800       5.940
  C      -33.904       6.408       6.277
  O      -34.356       5.063       6.202
  O      -36.394       6.106       5.151
  O      -36.229       3.552       5.182
  H      -37.002       5.857       4.430
  H      -32.849       6.420       6.454
  H      -34.406       6.909       7.078
  H      -34.116       6.908       5.355

 6  7  8  9  10  11  12  13  14  15  16  26  30  31  32  33  35 0
 6-311+G(2d,p)
 ****
 37  38 0
 6-311+G(2d,p)
 ****
 1  2  3  4  5  17  18  19  20  21  22  23  24  25 0
 3-21G
 ****
 27  28  29  34  36  39  40  41  42  43  44  45  46 0
 3-21G
 ****


