%nproc=1
%NoSave
%Mem=1900MB
#P OB98/GEN NMR

erre ene a

0 1
  C      339.744    -859.839     988.355
  O      338.973    -859.247     989.407
  P      339.585    -858.885     990.837
  C      339.476    -856.305     991.020
  O      338.897    -857.552     991.401
  C      339.005    -855.166     991.922
  O      337.639    -854.852     991.677
  C      339.102    -855.448     993.415
  O      340.452    -855.364     993.859
  C      338.176    -854.381     993.985
  O      338.849    -853.112     994.099
  C      337.072    -854.317     992.888
  N      335.863    -855.028     993.285
  C      334.920    -854.296     994.021
  O      335.160    -853.123     994.347
  N      333.739    -854.917     994.373
  C      333.549    -856.167     994.097
  N      332.364    -856.719     994.467
  C      334.562    -857.001     993.413
  C      335.685    -856.365     993.038
  O      341.092    -858.853     990.875
  O      339.039    -860.036     991.834
  H      338.234    -852.505     994.542
  H      339.696    -860.195     992.529
  H      334.381    -858.061     993.215
  H      336.451    -856.893     992.510
  H      336.811    -853.268     992.663
  H      337.786    -854.634     994.960
  H      338.688    -856.451     993.623
  H      339.618    -854.279     991.660
  H      331.713    -856.121     994.944
  H      339.178    -856.101     989.972
  H      332.127    -857.682     994.301
  H      340.573    -856.414     991.051
  P      341.020    -856.488     994.866
  C      343.114    -857.259     993.564
  O      342.616    -856.510     994.682
  O      340.354    -857.815     994.791
  O      340.851    -855.811     996.319
  H      340.699    -856.530     996.958
  H      344.114    -856.894     993.335
  H      342.464    -857.142     992.702
  H      343.182    -858.314     993.862
  H      339.122    -859.988     987.497
  H      340.131    -860.781     988.683
  H      340.555    -859.190     988.099

 3  4  5  6  7  8  9  10  11  12  13  23  27  28  29  30  32 0
 6-311+G(2d,p)
 ****
 34  35 0
 6-311+G(2d,p)
 ****
 1  2  14  15  16  17  18  19  20  21  22  24  25  26 0
 3-21G
 ****
 31  33  36  37  38  39  40  41  42  43  44  45  46 0
 3-21G
 ****


