%nproc=1
%NoSave
%Mem=1900MB
#P OB98/GEN NMR

erre ene a

0 1
  C        5.954     -80.763    -304.827
  O        4.565     -80.689    -305.179
  P        4.203     -80.658    -306.742
  C        2.299     -79.006    -306.073
  O        2.715     -80.089    -306.906
  C        0.876     -79.255    -305.560
  O        0.851     -80.344    -304.620
  C        0.295     -78.063    -304.814
  O       -0.147     -77.068    -305.719
  C       -0.828     -78.711    -304.013
  O       -2.064     -78.718    -304.744
  C       -0.315     -80.154    -303.787
  N       -0.014     -80.433    -302.393
  C       -1.050     -80.179    -301.481
  O       -2.126     -79.724    -301.878
  N       -0.825     -80.419    -300.148
  C        0.331     -80.852    -299.758
  N        0.493     -81.070    -298.423
  C        1.459     -81.106    -300.680
  C        1.220     -80.873    -301.970
  O        4.050     -82.209    -307.114
  O        5.238     -79.987    -307.590
  H       -1.896     -79.259    -305.545
  H        4.333     -82.363    -308.032
  H        2.411     -81.458    -300.306
  H        1.995     -81.030    -302.720
  H       -1.062     -80.882    -304.126
  H       -1.018     -78.168    -303.077
  H        1.048     -77.648    -304.126
  H        0.235     -79.513    -306.417
  H       -0.300     -80.881    -297.820
  H        2.335     -78.067    -306.632
  H        1.358     -81.397    -298.008
  H        3.007     -78.909    -305.244
  P        0.792     -75.802    -305.960
  C       -1.204     -74.189    -305.794
  O       -0.163     -74.687    -306.612
  O        1.671     -76.270    -307.225
  O        1.653     -75.355    -304.823
  H        2.361     -75.608    -307.412
  H       -1.637     -73.306    -306.277
  H       -0.814     -73.899    -304.817
  H       -1.983     -74.949    -305.683
  H        6.052     -80.776    -303.762
  H        6.468     -79.911    -305.222
  H        6.378     -81.656    -305.235

 3  4  5  6  7  8  9  10  11  12  13  21  23  27  28  29  30  32 0
 6-311+G(2d,p)
 ****
 34  35 0
 6-311+G(2d,p)
 ****
 1  2  14  15  16  17  18  19  20  22  24  25  26 0
 3-21G
 ****
 31  33  36  37  38  39  40  41  42  43  44  45  46 0
 3-21G
 ****


