%nproc=1
%NoSave
%Mem=1900MB
#P OB98/GEN NMR

erre ene a

0 1
  C      -38.426      99.330     254.610
  O      -38.443     100.740     254.636
  H      -37.757      99.008     253.804
  H      -39.424      98.940     254.402
  H      -38.052      98.927     255.556
  P      -39.377     101.495     255.705
  C      -37.642     101.321     257.591
  O      -38.933     100.919     257.142
  C      -37.689     102.698     258.256
  O      -38.392     102.597     259.527
  C      -36.306     103.303     258.532
  O      -36.281     104.670     258.105
  C      -36.187     103.243     260.050
  O      -35.281     104.209     260.573
  C      -37.657     103.415     260.460
  N      -37.886     103.024     261.846
  C      -37.810     104.049     262.795
  O      -37.577     105.210     262.448
  N      -37.960     103.734     264.123
  C      -38.110     102.493     264.472
  N      -38.218     102.243     265.809
  C      -38.163     101.376     263.503
  C      -38.047     101.709     262.221
  O      -40.840     101.414     255.416
  O      -38.827     102.999     255.740
  H      -35.007     103.929     261.477
  H      -39.539     103.589     256.081
  H      -38.286     100.360     263.853
  H      -38.072     100.962     261.440
  H      -37.977     104.458     260.332
  H      -35.828     102.249     260.344
  H      -35.495     102.762     258.045
  H      -38.296     103.366     257.625
  H      -38.166     103.033     266.437
  H      -36.962     101.335     256.729
  H      -38.316     101.314     266.200
  H      -37.288     100.586     258.318
  P      -34.956     105.142     257.321
  C      -35.895     104.755     254.932
  O      -34.925     104.389     255.900
  O      -33.767     104.448     258.155
  O      -34.794     106.623     257.272
  H      -33.265     105.129     258.640
  H      -35.751     104.174     254.045
  H      -35.792     105.794     254.699
  H      -36.875     104.573     255.322

 6  7  8  9  10  11  12  13  14  15  16  26  30  31  32  33  35 0
 6-311+G(2d,p)
 ****
 37  38 0
 6-311+G(2d,p)
 ****
 1  2  3  4  5  17  18  19  20  21  22  23  24  25 0
 3-21G
 ****
 27  28  29  34  36  39  40  41  42  43  44  45  46 0
 3-21G
 ****


