%nproc=1
%NoSave
%Mem=1900MB
#P OB98/GEN NMR

erre ene a

0 1
  C     -757.054      74.223    -891.098
  O     -758.306      73.808    -891.598
  H     -756.329      73.414    -891.238
  H     -757.135      74.446    -890.028
  H     -756.697      75.109    -891.628
  P     -759.510      74.856    -891.498
  C     -759.781      74.989    -894.068
  O     -759.513      75.689    -892.868
  C     -760.376      75.927    -895.128
  O     -761.629      76.485    -894.618
  C     -759.452      77.099    -895.488
  O     -759.579      77.372    -896.898
  C     -760.053      78.265    -894.718
  O     -759.712      79.524    -895.288
  C     -761.536      77.905    -894.798
  N     -764.966      81.540    -894.098
  C     -764.431      81.038    -895.268
  N     -764.851      81.564    -896.448
  N     -763.537      80.083    -895.288
  C     -763.219      79.609    -894.058
  C     -763.673      80.036    -892.838
  C     -764.643      81.117    -892.818
  O     -765.162      81.626    -891.828
  N     -763.093      79.344    -891.818
  C     -762.267      78.493    -892.408
  N     -762.316      78.620    -893.778
  O     -758.989      75.925    -890.418
  O     -760.837      74.269    -891.118
  H     -760.113      80.222    -894.718
  H     -759.736      76.311    -889.918
  H     -765.650      82.285    -894.138
  H     -761.610      77.760    -891.918
  H     -761.986      78.172    -895.768
  H     -759.700      78.252    -893.668
  H     -765.566      82.280    -896.498
  H     -758.407      76.931    -895.238
  H     -764.464      81.199    -897.298
  H     -760.638      75.349    -896.018
  H     -760.504      74.183    -893.848
  H     -758.855      74.541    -894.458
  P     -758.400      76.839    -897.858
  C     -760.283      75.895    -899.388
  O     -759.004      75.690    -898.808
  O     -757.457      76.040    -896.858
  O     -757.667      77.930    -898.568
  H     -756.628      76.544    -896.718
  H     -760.542      75.048    -899.988
  H     -760.261      76.772    -900.000
  H     -761.010      76.019    -898.613

 6  7  8  9  10  11  12  13  14  15  26  29  33  34 0
 6-311+G(2d,p)
 ****
 36  38  39  40  41 0
 6-311+G(2d,p)
 ****
 1  2  3  4  5  16  17  18  19  20  21  22  23  24  25 0
 3-21G
 ****
 27  28  30  31  32  35  37  42  43  44  45  46  47 0
 3-21G
 ****
 48  49 0
 3-21G
 ****


