%nproc=1
%NoSave
%Mem=1900MB
#P OB98/GEN NMR

erre ene a

0 1
  C     -927.346     240.311    -655.507
  O     -928.084     240.842    -656.618
  P     -929.020     239.938    -657.575
  C     -931.195     241.324    -657.345
  O     -930.153     240.893    -658.212
  C     -931.543     242.803    -657.609
  O     -930.609     243.657    -656.897
  C     -931.418     243.264    -659.054
  O     -932.487     242.769    -659.870
  C     -931.390     244.777    -658.890
  O     -932.730     245.316    -658.803
  C     -930.660     244.944    -657.545
  N     -929.321     245.515    -657.699
  C     -929.189     246.869    -657.416
  O     -930.164     247.556    -657.129
  N     -927.914     247.421    -657.468
  C     -926.915     246.687    -657.884
  N     -925.699     247.297    -657.903
  C     -927.061     245.287    -658.324
  C     -928.273     244.768    -658.214
  O     -929.569     238.715    -656.904
  O     -928.088     239.538    -658.812
  H     -928.404     238.708    -659.202
  H     -932.653     246.224    -658.463
  H     -926.203     244.755    -658.712
  H     -928.456     243.748    -658.502
  H     -931.260     245.599    -656.871
  H     -930.909     245.269    -659.733
  H     -930.453     242.904    -659.463
  H     -932.562     242.994    -657.223
  H     -925.640     248.264    -657.584
  H     -930.871     241.207    -656.306
  H     -924.835     246.820    -658.193
  H     -932.081     240.680    -657.492
  P     -932.256     242.828    -661.450
  C     -932.796     240.289    -661.741
  O     -933.114     241.635    -662.106
  O     -930.746     242.370    -661.659
  O     -932.526     244.178    -662.064
  H     -930.345     242.914    -662.353
  H     -933.682     239.674    -661.851
  H     -932.415     240.234    -660.721
  H     -932.026     239.921    -662.434
  H     -926.804     241.100    -655.029
  H     -926.660     239.568    -655.857
  H     -928.024     239.869    -654.807

 3  4  5  6  7  8  9  10  11  12  13  24  27  28  29  30  32 0
 6-311+G(2d,p)
 ****
 34  35 0
 6-311+G(2d,p)
 ****
 1  2  14  15  16  17  18  19  20  21  22  23  25  26 0
 3-21G
 ****
 31  33  36  37  38  39  40  41  42  43  44  45  46 0
 3-21G
 ****


