%nproc=1
%NoSave
%Mem=1900MB
#P OB98/GEN NMR

erre ene a

0 1
  C     -485.488     185.671     586.149
  O     -486.542     185.023     586.833
  H     -485.908     186.370     585.428
  H     -484.882     184.935     585.615
  H     -484.858     186.227     586.854
  P     -486.164     184.122     588.103
  C     -487.690     182.024     587.939
  O     -487.494     183.311     588.504
  C     -488.857     181.324     588.620
  O     -488.518     181.124     590.028
  C     -490.178     182.117     588.586
  O     -491.262     181.174     588.446
  C     -490.244     182.756     589.957
  O     -491.549     183.098     590.373
  C     -489.601     181.650     590.820
  N     -489.123     182.157     592.101
  C     -489.565     181.492     593.256
  O     -490.246     180.483     593.261
  N     -489.169     182.064     594.441
  C     -488.424     183.200     594.584
  O     -488.115     183.666     595.681
  C     -488.000     183.848     593.337
  C     -488.369     183.314     592.171
  O     -486.025     185.202     589.277
  O     -484.943     183.279     587.954
  H     -485.104     185.534     589.332
  H     -491.947     183.662     589.677
  H     -489.477     181.605     595.281
  H     -487.420     184.765     593.408
  H     -488.079     183.774     591.238
  H     -490.320     180.840     590.982
  H     -489.626     183.664     589.965
  H     -490.232     182.848     587.774
  H     -488.986     180.321     588.180
  H     -486.778     181.422     588.068
  H     -487.886     182.129     586.859
  P     -491.713     180.790     586.955
  C     -494.301     180.395     587.007
  O     -492.999     179.853     587.129
  O     -490.533     179.797     586.530
  O     -491.885     181.973     586.070
  H     -490.210     179.247     587.268
  H     -495.025     179.621     587.154
  H     -494.422     180.816     586.031
  H     -494.440     181.158     587.744

 6  7  8  9  10  11  12  13  14  15  16  27  31  32  33  34  35 0
 6-311+G(2d,p)
 ****
 36  37 0
 6-311+G(2d,p)
 ****
 1  2  3  4  5  17  18  19  20  21  22  23  24  25 0
 3-21G
 ****
 26  28  29  30  38  39  40  41  42  43  44  45 0
 3-21G
 ****


