%nproc=1
%NoSave
%Mem=1900MB
#P OB98/GEN NMR

erre ene a

0 1
  C      -72.935     101.288     -95.422
  O      -71.593     101.494     -95.810
  H      -73.582     101.872     -96.082
  H      -73.092     101.625     -94.395
  H      -73.206     100.233     -95.514
  P      -70.436     100.744     -94.990
  C      -69.836     102.912     -93.704
  O      -70.321     101.581     -93.621
  C      -69.937     103.596     -92.344
  O      -71.313     103.812     -91.966
  C      -69.342     102.806     -91.183
  O      -67.926     102.789     -91.167
  C      -69.924     103.579     -90.014
  O      -69.211     104.819     -89.851
  C      -71.368     103.823     -90.511
  N      -72.308     102.814     -90.025
  C      -72.777     102.974     -88.716
  O      -72.397     103.916     -88.022
  N      -73.644     102.039     -88.205
  C      -73.995     101.021     -88.928
  N      -74.851     100.122     -88.370
  C      -73.510     100.803     -90.304
  C      -72.682     101.728     -90.785
  O      -69.150     100.528     -95.720
  O      -71.118      99.389     -94.482
  H      -69.383     105.351     -90.650
  H      -70.439      98.881     -93.976
  H      -73.808      99.924     -90.855
  H      -72.278     101.634     -91.787
  H      -71.724     104.815     -90.208
  H      -69.860     103.044     -89.066
  H      -69.744     101.785     -91.158
  H      -69.469     104.585     -92.437
  H      -75.166     100.297     -87.425
  H      -70.425     103.445     -94.456
  H      -75.116      99.263     -88.832
  H      -68.786     102.909     -94.011
  P      -67.213     101.348     -91.210
  C      -67.121     101.074     -88.614
  O      -67.626     100.603     -89.854
  O      -65.668     101.702     -91.008
  O      -67.465     100.552     -92.451
  H      -65.202     101.719     -91.866
  H      -67.497     100.463     -87.820
  H      -67.433     102.086     -88.463
  H      -66.052     101.028     -88.624

 6  7  8  9  10  11  12  13  14  15  16  26  30  31  32  33  35 0
 6-311+G(2d,p)
 ****
 37  38 0
 6-311+G(2d,p)
 ****
 1  2  3  4  5  17  18  19  20  21  22  23  24  25 0
 3-21G
 ****
 27  28  29  34  36  39  40  41  42  43  44  45  46 0
 3-21G
 ****


