%nproc=1
%NoSave
%Mem=1900MB
#P OB98/GEN NMR

erre ene a

0 1
  C      597.799     158.543    -203.009
  O      598.528     157.616    -203.804
  P      597.937     157.256    -205.250
  C      598.865     157.347    -207.672
  O      599.101     157.611    -206.294
  C      599.975     157.948    -208.537
  O      599.858     159.376    -208.549
  C      601.382     157.655    -208.034
  O      601.827     156.365    -208.418
  C      602.175     158.738    -208.751
  O      602.458     158.321    -210.102
  C      601.188     159.921    -208.756
  N      601.562     164.864    -207.691
  C      601.253     164.229    -208.888
  N      600.981     165.031    -209.937
  N      601.224     162.935    -209.031
  C      601.475     162.260    -207.886
  C      601.798     162.770    -206.650
  C      601.878     164.204    -206.504
  O      602.212     164.816    -205.496
  N      601.972     161.764    -205.725
  C      601.718     160.655    -206.393
  N      601.449     160.899    -207.718
  O      596.859     158.420    -205.499
  O      597.327     155.897    -205.373
  H      603.062     157.553    -210.039
  H      596.170     158.108    -206.125
  H      601.555     165.858    -207.627
  H      601.728     159.664    -205.964
  H      601.185     160.435    -209.725
  H      603.136     158.951    -208.277
  H      600.870     166.034    -209.851
  H      601.453     157.799    -206.944
  H      600.720     164.591    -210.811
  H      599.840     157.580    -209.563
  H      597.905     157.802    -207.966
  H      598.798     156.262    -207.825
  P      603.196     155.843    -207.758
  C      604.641     153.755    -208.324
  O      603.343     154.319    -208.224
  O      602.835     155.738    -206.200
  O      604.375     156.732    -208.013
  H      603.641     155.837    -205.660
  H      605.300     154.131    -207.536
  H      605.067     153.991    -209.299
  H      604.563     152.667    -208.228
  H      598.305     158.689    -202.077
  H      596.817     158.161    -202.826
  H      597.727     159.477    -203.526

 3  4  5  6  7  8  9  10  11  12  23  26  30  31  33  0
 6-311+G(2d,p)
 ****
 35  36  37  38 0
 6-311+G(2d,p)
 ****
 1  2  13  14  15  16  17  18  19  20  21  22  24  25  27  28  29 0
 3-21G
 ****
 32  34  39  40  41  42  43  44  45  46  47  48  49 0
 3-21G
 ****


