%nproc=1
%NoSave
%Mem=1900MB
#P OB98/GEN NMR

erre ene a

0 1
  C      684.992    -789.340      97.161
  O      684.116    -788.798      98.154
  P      684.157    -787.218      98.367
  C      682.425    -785.706      99.592
  O      683.271    -786.850      99.658
  C      681.465    -785.692     100.790
  O      680.417    -786.693     100.648
  C      682.153    -786.007     102.118
  O      682.900    -784.902     102.575
  C      680.944    -786.355     102.969
  O      680.279    -785.162     103.434
  C      680.033    -787.114     101.982
  N      678.783    -791.199     104.815
  C      678.558    -789.870     104.959
  N      678.920    -788.844     104.174
  C      679.606    -789.292     103.097
  C      679.924    -790.609     102.803
  C      679.491    -791.590     103.718
  N      679.749    -792.927     103.552
  N      680.626    -790.688     101.610
  C      680.746    -789.426     101.213
  N      680.129    -788.554     102.080
  O      683.297    -786.648      97.144
  O      685.556    -786.648      98.385
  H      679.466    -785.465     103.922
  H      683.894    -786.225      96.488
  H      677.987    -789.593     105.856
  H      681.273    -789.100     100.328
  H      678.978    -786.833     102.099
  H      681.202    -786.946     103.868
  H      682.804    -786.887     102.014
  H      680.992    -784.710     100.839
  H      681.856    -785.712      98.664
  H      679.479    -793.568     104.297
  H      680.337    -793.227     102.794
  H      683.063    -784.817      99.580
  P      684.442    -785.143     102.936
  C      686.217    -783.361     103.482
  O      684.879    -783.786     103.683
  O      685.147    -785.002     101.497
  O      684.729    -786.412     103.677
  H      684.812    -784.207     101.026
  H      686.372    -782.424     104.021
  H      686.404    -783.205     102.413
  H      686.918    -784.103     103.883
  H      684.868    -790.402      97.117
  H      686.005    -789.109      97.415
  H      684.758    -788.914      96.208

 3  4  5  6  7  8  9  10  11  12  22  25  29  30  31  32 0
 6-311+G(2d,p)
 ****
 33  36  37 0
 6-311+G(2d,p)
 ****
 1  2  13  14  15  16  17  18  19  20  21  23  24  26 0
 3-21G
 ****
 27  28  34  35  38  39  40  41  42  43  44  45  46  47  48 0
 3-21G
 ****


