%nproc=1
%NoSave
%Mem=1900MB
#P OB98/GEN NMR

erre ene a

0 1
  C     -686.220     104.570    -574.163
  O     -685.213     105.094    -573.317
  H     -686.976     104.076    -573.544
  H     -685.794     103.831    -574.848
  H     -686.699     105.374    -574.730
  P     -683.992     105.839    -574.044
  C     -682.105     104.519    -572.838
  O     -682.774     104.789    -574.066
  C     -680.769     103.830    -573.098
  O     -680.980     102.480    -573.581
  C     -679.886     104.534    -574.122
  O     -679.161     105.596    -573.538
  C     -678.989     103.383    -574.577
  O     -677.911     103.157    -573.643
  C     -679.967     102.195    -574.583
  N     -679.160     100.681    -579.327
  C     -678.287     100.752    -578.259
  N     -677.001     100.408    -578.498
  N     -678.651     101.120    -577.056
  C     -679.956     101.462    -576.977
  C     -680.922     101.430    -577.960
  C     -680.515     100.978    -579.272
  O     -681.246     100.839    -580.257
  N     -682.136     101.827    -577.487
  C     -681.911     102.152    -576.219
  N     -680.595     101.958    -575.875
  O     -683.519     106.923    -572.962
  O     -684.318     106.473    -575.355
  H     -678.280     103.077    -572.747
  H     -683.159     107.701    -573.431
  H     -678.828     100.369    -580.228
  H     -682.654     102.517    -575.531
  H     -679.473     101.262    -574.296
  H     -678.528     103.591    -575.543
  H     -676.614     100.448    -579.435
  H     -680.488     104.878    -574.972
  H     -676.359     100.478    -577.724
  H     -680.243     103.754    -572.128
  H     -682.737     103.864    -572.222
  H     -681.945     105.461    -572.306
  P     -678.641     106.777    -574.497
  C     -676.184     106.229    -573.830
  O     -677.130     106.408    -574.885
  O     -678.474     108.022    -573.506
  O     -679.551     107.076    -575.649
  H     -678.431     108.844    -574.020
  H     -675.228     105.989    -574.245
  H     -676.507     105.432    -573.193
  H     -676.109     107.132    -573.261

 6  7  8  9  10  11  12  13  14  15  26  29  33  34 0
 6-311+G(2d,p)
 ****
 36  38  39  40  41 0
 6-311+G(2d,p)
 ****
 1  2  3  4  5  16  17  18  19  20  21  22  23  24  25 0
 3-21G
 ****
 27  28  30  31  32  35  37  42  43  44  45  46  47 0
 3-21G
 ****
 48  49 0
 3-21G
 ****


