%nproc=1
%NoSave
%Mem=1900MB
#P OB98/GEN NMR

erre ene a

0 1
  C      249.736    -168.793     -25.813
  O      249.495    -167.698     -26.714
  P      250.152    -166.267     -26.399
  C      250.934    -165.813     -28.847
  O      250.192    -165.362     -27.726
  C      250.982    -164.743     -29.952
  O      249.755    -164.779     -30.735
  C      251.142    -163.305     -29.437
  O      251.907    -162.588     -30.418
  C      249.713    -162.800     -29.418
  O      249.617    -161.384     -29.405
  C      249.175    -163.456     -30.695
  N      247.716    -163.525     -30.770
  C      247.035    -162.408     -31.244
  O      247.570    -161.345     -31.548
  N      245.670    -162.538     -31.335
  C      244.937    -163.627     -30.968
  O      243.716    -163.670     -31.046
  C      245.708    -164.766     -30.448
  C      247.038    -164.663     -30.374
  O      251.699    -166.647     -26.205
  O      249.635    -165.577     -25.181
  H      248.671    -161.156     -29.457
  H      252.050    -166.202     -25.411
  H      245.162    -161.742     -31.692
  H      245.164    -165.654     -30.150
  H      247.628    -165.496     -30.003
  H      249.558    -162.918     -31.571
  H      249.206    -163.175     -28.519
  H      251.635    -163.252     -28.460
  H      251.801    -164.999     -30.636
  H      250.468    -166.717     -29.251
  H      251.951    -166.064     -28.525
  P      253.354    -162.027     -30.001
  C      254.413    -162.561     -32.337
  O      254.099    -161.600     -31.352
  O      254.086    -163.397     -29.594
  O      253.334    -161.020     -28.898
  H      253.932    -164.110     -30.237
  H      253.595    -163.275     -32.469
  H      255.320    -163.100     -32.048
  H      254.590    -162.049     -33.283
  H      249.229    -169.666     -26.168
  H      249.371    -168.541     -24.839
  H      250.787    -168.987     -25.761

 3  4  5  6  7  8  9  10  11  12  13  23  28  29  30  31  32 0
 6-311+G(2d,p)
 ****
 33  34 0
 6-311+G(2d,p)
 ****
 1  2  14  15  16  17  18  19  20  21  22  24  25  26 0
 3-21G
 ****
 27  35  36  37  38  39  40  41  42  43  44  45 0
 3-21G
 ****


