%nproc=1
%NoSave
%Mem=1900MB
#P OB98/GEN NMR

erre ene a

0 1
  C     -295.484    -811.631    -894.630
  O     -294.040    -811.441    -894.730
  P     -293.443    -810.605    -895.940
  C     -291.398    -809.517    -894.720
  O     -292.634    -809.312    -895.410
  C     -290.642    -808.187    -894.520
  O     -290.625    -807.435    -895.780
  C     -291.253    -807.230    -893.430
  O     -290.143    -806.528    -892.880
  C     -292.113    -806.307    -894.300
  O     -292.422    -805.080    -893.630
  C     -291.227    -806.118    -895.520
  N     -291.886    -805.633    -896.730
  C     -291.511    -804.370    -897.200
  O     -290.709    -803.617    -896.620
  N     -292.148    -803.963    -898.340
  C     -293.142    -804.607    -899.000
  O     -293.667    -804.161    -900.000
  C     -293.503    -805.935    -898.450
  C     -292.900    -806.341    -897.330
  O     -294.781    -809.905    -896.540
  O     -292.733    -811.417    -897.000
  H     -292.804    -804.476    -894.330
  H     -294.789    -809.994    -897.540
  H     -291.873    -803.015    -898.670
  H     -294.291    -806.497    -898.960
  H     -293.164    -807.321    -896.950
  H     -290.367    -805.459    -895.280
  H     -293.062    -806.797    -894.550
  H     -291.841    -807.799    -892.710
  H     -289.578    -808.430    -894.310
  H     -290.810    -810.200    -895.330
  H     -291.600    -810.007    -893.760
  P     -290.248    -806.124    -891.280
  C     -288.453    -807.881    -890.530
  O     -289.790    -807.423    -890.480
  O     -291.847    -806.104    -891.100
  O     -289.572    -804.815    -890.960
  H     -292.286    -806.863    -891.500
  H     -287.727    -807.031    -890.490
  H     -288.304    -808.454    -891.430
  H     -288.253    -808.494    -889.670
  H     -295.708    -812.214    -893.761
  H     -295.838    -812.140    -895.502
  H     -295.965    -810.678    -894.554

 3  4  5  6  7  8  9  10  11  12  13  23  28  29  30  31  32 0
 6-311+G(2d,p)
 ****
 33  34 0
 6-311+G(2d,p)
 ****
 1  2  14  15  16  17  18  19  20  21  22  24  25  26 0
 3-21G
 ****
 27  35  36  37  38  39  40  41  42  43  44  45 0
 3-21G
 ****


