%nproc=1
%NoSave
%Mem=1900MB
#P OB98/GEN NMR

erre ene a

0 1
  C      448.994    -983.507    -288.181
  O      449.003    -982.439    -287.255
  H      450.020    -983.808    -288.414
  H      448.474    -984.356    -287.733
  H      448.473    -983.216    -289.094
  P      449.749    -981.098    -287.728
  C      447.579    -979.984    -288.603
  O      448.868    -980.481    -288.929
  C      446.911    -979.409    -289.849
  O      447.583    -978.167    -290.197
  C      446.968    -980.336    -291.077
  O      445.667    -980.480    -291.660
  C      447.861    -979.602    -292.058
  O      447.475    -979.792    -293.411
  C      447.711    -978.151    -291.623
  N      449.916    -975.809    -295.580
  C      448.643    -976.207    -295.374
  N      448.095    -976.738    -294.266
  C      449.008    -976.810    -293.278
  C      450.342    -976.430    -293.329
  C      450.796    -975.922    -294.560
  N      452.108    -975.569    -294.785
  N      450.968    -976.664    -292.119
  C      450.043    -977.227    -291.359
  N      448.850    -977.343    -292.028
  O      451.061    -981.648    -288.467
  O      450.094    -980.158    -286.626
  H      448.012    -979.197    -293.960
  H      451.848    -981.314    -287.997
  H      447.967    -976.095    -296.226
  H      450.196    -977.602    -290.357
  H      446.804    -977.690    -292.037
  H      448.889    -979.953    -291.934
  H      447.370    -981.332    -290.837
  H      445.875    -979.160    -289.604
  H      447.673    -979.190    -287.848
  H      452.373    -975.330    -295.730
  H      452.788    -975.755    -294.060
  H      446.979    -980.801    -288.183
  P      445.207    -981.981    -292.022
  C      443.307    -982.614    -290.361
  O      444.698    -982.689    -290.664
  O      446.593    -982.720    -292.336
  O      444.269    -982.065    -293.173
  H      446.569    -983.106    -293.229
  H      443.115    -983.122    -289.439
  H      442.745    -983.075    -291.147
  H      443.017    -981.588    -290.270

 6  7  8  9  10  11  12  13  14  15  25  28  32  33  34  35 0
 6-311+G(2d,p)
 ****
 36  39  40 0
 6-311+G(2d,p)
 ****
 1  2  3  4  5  16  17  18  19  20  21  22  23  24 0
 3-21G
 ****
 26  27  29  30  31  37  38  41  42  43  44  45  46  47  48 0
 3-21G
 ****


