%nproc=1
%NoSave
%Mem=1900MB
#P OB98/GEN NMR

erre ene a

0 1
  C      183.090      12.385    -194.745
  O      182.191      11.494    -194.078
  P      180.872      11.058    -194.892
  C      181.254       8.484    -194.945
  O      180.495       9.568    -194.428
  C      180.381       7.241    -195.105
  O      181.084       6.204    -195.813
  C      179.955       6.605    -193.791
  O      178.861       7.292    -193.204
  C      179.532       5.219    -194.258
  O      178.187       5.263    -194.768
  C      180.528       4.933    -195.394
  N      181.833       0.222    -194.058
  C      180.598       0.736    -194.397
  N      179.566      -0.137    -194.407
  N      180.389       1.990    -194.698
  C      181.516       2.741    -194.677
  C      182.795       2.350    -194.358
  C      183.007       0.964    -193.995
  O      184.075       0.465    -193.655
  N      183.679       3.392    -194.456
  C      182.943       4.407    -194.863
  N      181.620       4.064    -194.996
  O      181.422      10.852    -196.382
  O      179.768      12.058    -194.836
  H      178.213       5.780    -195.597
  H      180.706      11.001    -197.026
  H      181.935      -0.751    -193.827
  H      183.317       5.401    -195.075
  H      180.036       4.489    -196.266
  H      179.541       4.477    -193.452
  H      179.667      -1.129    -194.254
  H      180.805       6.520    -193.101
  H      178.659       0.214    -194.687
  H      179.495       7.522    -195.688
  H      182.086       8.260    -194.272
  H      181.692       8.783    -195.904
  P      179.091       7.936    -191.751
  C      178.810      10.497    -192.058
  O      178.199       9.265    -191.726
  O      180.595       8.477    -191.831
  O      178.895       6.989    -190.617
  H      181.001       8.476    -190.944
  H      179.465      10.393    -192.927
  H      179.389      10.862    -191.204
  H      178.030      11.226    -192.292
  H      183.921      12.598    -194.105
  H      182.580      13.295    -194.982
  H      183.442      11.928    -195.646

 3  4  5  6  7  8  9  10  11  12  23  26  30  31  33  0
 6-311+G(2d,p)
 ****
 35  36  37  38 0
 6-311+G(2d,p)
 ****
 1  2  13  14  15  16  17  18  19  20  21  22  24  25  27  28  29 0
 3-21G
 ****
 32  34  39  40  41  42  43  44  45  46  47  48  49 0
 3-21G
 ****


