%nproc=1
%NoSave
%Mem=1900MB
#P OB98/GEN NMR

erre ene a

0 1
  C       42.889    -890.380    -899.090
  O       41.988    -890.670    -898.040
  H       42.868    -889.310    -899.290
  H       42.581    -890.920    -900.000
  H       43.910    -890.670    -898.810
  P       41.994    -892.170    -897.470
  C       42.588    -891.580    -894.980
  O       42.999    -892.130    -896.210
  C       43.186    -892.370    -893.800
  O       42.595    -893.710    -893.820
  C       44.707    -892.520    -893.860
  O       45.220    -892.480    -892.520
  C       44.920    -893.920    -894.440
  O       46.182    -894.460    -894.070
  C       43.698    -894.660    -893.870
  N       43.340    -895.860    -894.660
  C       44.124    -896.970    -894.500
  O       45.114    -896.960    -893.730
  N       43.848    -898.110    -895.240
  C       42.895    -898.070    -896.120
  N       42.685    -899.190    -896.840
  C       42.054    -896.870    -896.370
  C       42.326    -895.820    -895.600
  O       42.812    -892.950    -898.600
  O       40.633    -892.720    -897.180
  H       46.344    -895.230    -894.650
  H       43.580    -892.460    -898.930
  H       41.289    -896.880    -897.120
  H       41.757    -894.900    -895.710
  H       43.886    -895.000    -892.840
  H       44.849    -893.890    -895.530
  H       45.196    -891.770    -894.470
  H       42.851    -891.910    -892.870
  H       43.287    -900.000    -896.650
  H       41.487    -891.580    -894.900
  H       42.000    -899.280    -897.580
  H       42.931    -890.550    -894.950
  P       45.475    -891.030    -891.860
  C       43.359    -890.820    -890.400
  O       44.074    -890.340    -891.540
  O       46.475    -890.180    -892.540
  O       45.992    -891.430    -890.380
  H       46.716    -890.800    -890.150
  H       42.443    -890.277    -890.299
  H       43.954    -890.682    -889.522
  H       43.144    -891.861    -890.526

 6  7  8  9  10  11  12  13  14  15  16  26  30  31  32  33  35 0
 6-311+G(2d,p)
 ****
 37  38 0
 6-311+G(2d,p)
 ****
 1  2  3  4  5  17  18  19  20  21  22  23  24  25 0
 3-21G
 ****
 27  28  29  34  36  39  40  41  42  43  44  45  46 0
 3-21G
 ****


