%nproc=1
%NoSave
%Mem=1900MB
#P OB98/GEN NMR

erre ene a

0 1
  C       -6.499    -161.687    -349.875
  O       -7.804    -162.270    -349.857
  P       -8.360    -163.305    -350.936
  C       -8.265    -165.887    -350.452
  O       -8.851    -164.622    -350.177
  C       -8.738    -166.950    -349.443
  O       -8.089    -166.697    -348.159
  C      -10.254    -166.894    -349.196
  O      -10.868    -168.178    -349.126
  C      -10.369    -166.001    -347.972
  O      -11.603    -166.139    -347.289
  C       -9.114    -166.376    -347.187
  N       -9.155    -164.486    -342.442
  C       -9.894    -165.525    -342.976
  N      -10.766    -166.138    -342.147
  N       -9.793    -165.919    -344.216
  C       -8.936    -165.177    -344.956
  C       -8.168    -164.111    -344.544
  C       -8.251    -163.717    -343.159
  O       -7.603    -162.809    -342.625
  N       -7.414    -163.610    -345.580
  C       -7.750    -164.355    -346.618
  N       -8.664    -165.325    -346.287
  O       -7.512    -163.503    -352.148
  O       -9.748    -162.634    -351.422
  H      -11.644    -165.450    -346.595
  H       -9.861    -162.887    -352.363
  H       -9.259    -164.237    -341.470
  H       -7.348    -164.243    -347.621
  H       -9.268    -167.258    -346.563
  H      -10.310    -164.959    -348.318
  H      -10.983    -165.809    -341.219
  H      -10.767    -166.415    -350.043
  H      -11.454    -166.744    -342.596
  H       -8.423    -167.938    -349.797
  H       -7.185    -165.745    -350.359
  H       -8.470    -166.198    -351.476
  P      -11.828    -168.889    -350.191
  C      -10.703    -169.615    -352.382
  O      -10.964    -169.945    -351.031
  O      -12.155    -167.756    -351.274
  O      -13.092    -169.435    -349.616
  H      -13.116    -167.581    -351.285
  H      -10.353    -170.513    -352.902
  H       -9.928    -168.851    -352.433
  H      -11.615    -169.255    -352.873
  H       -6.390    -161.031    -349.037
  H       -6.368    -161.133    -350.781
  H       -5.762    -162.461    -349.820

 3  4  5  6  7  8  9  10  11  12  23  26  30  31 0
 6-311+G(2d,p)
 ****
 33  35  36  37  38 0
 6-311+G(2d,p)
 ****
 1  2  13  14  15  16  17  18  19  20  21  22  24  25 0
 3-21G
 ****
 27  28  29  32  34  39  40  41  42  43  44  45  46  47  48  49 0
 3-21G
 ****


