%nproc=1
%NoSave
%Mem=1900MB
#P OB98/GEN NMR

erre ene a

0 1
  C        0.791     336.427     763.194
  O        1.938     336.669     762.403
  H        0.312     337.385     763.421
  H        1.084     335.953     764.133
  H        0.069     335.791     762.667
  P        2.660     335.428     761.687
  C        4.931     335.051     760.523
  O        4.158     335.908     761.348
  C        5.975     335.847     759.733
  O        5.289     336.672     758.752
  C        6.833     336.784     760.605
  O        8.123     336.882     759.988
  C        6.085     338.097     760.479
  O        6.890     339.188     760.858
  C        5.669     338.049     759.001
  N        4.586     338.982     758.690
  C        4.894     340.337     758.755
  O        6.002     340.761     759.089
  N        3.875     341.201     758.473
  C        2.582     340.846     758.191
  O        1.706     341.670     757.979
  C        2.301     339.406     758.186
  C        3.302     338.542     758.423
  O        1.925     334.819     760.542
  O        2.900     334.375     762.872
  H        7.226     339.064     761.772
  H        2.880     333.461     762.517
  H        4.091     342.185     758.502
  H        1.289     339.096     757.979
  H        3.126     337.479     758.434
  H        6.521     338.282     758.345
  H        5.201     338.102     761.116
  H        6.930     336.446     761.639
  H        6.610     335.145     759.174
  H        4.249     334.547     759.822
  H        5.431     334.290     761.141
  P        9.455     336.362     760.705
  C       11.235     334.659     759.908
  O       10.483     335.834     759.588
  O        9.218     335.379     761.817
  O       10.168     337.680     761.271
  H       10.708     337.465     762.058
  H       11.878     334.413     759.089
  H       10.565     333.846     760.092
  H       11.825     334.840     760.782

 6  7  8  9  10  11  12  13  14  15  16  26  31  32  33  34  35 0
 6-311+G(2d,p)
 ****
 36  37 0
 6-311+G(2d,p)
 ****
 1  2  3  4  5  17  18  19  20  21  22  23  24  25 0
 3-21G
 ****
 27  28  29  30  38  39  40  41  42  43  44  45 0
 3-21G
 ****


