%nproc=1
%NoSave
%Mem=1900MB
#P OB98/GEN NMR

erre ene a

0 1
  C      253.059      60.421     -19.705
  O      254.236      59.932     -19.037
  P      254.638      60.554     -17.610
  C      257.205      60.119     -17.870
  O      256.015      59.888     -17.127
  C      258.333      59.231     -17.342
  O      258.630      59.549     -15.962
  C      258.019      57.739     -17.346
  O      258.119      57.181     -18.646
  C      259.069      57.209     -16.375
  O      260.329      57.012     -17.040
  C      259.165      58.356     -15.351
  N      258.480      58.044     -14.098
  C      259.280      57.600     -13.046
  O      260.489      57.411     -13.159
  N      258.630      57.348     -11.870
  C      257.283      57.430     -11.661
  O      256.759      57.170     -10.583
  C      256.481      57.827     -12.830
  C      257.104      58.106     -13.977
  O      253.573      59.855     -16.630
  O      254.554      62.040     -17.502
  H      260.971      56.755     -16.348
  H      253.408      60.436     -15.862
  H      259.196      57.055     -11.089
  H      255.403      57.881     -12.712
  H      256.527      58.402     -14.843
  H      260.216      58.576     -15.127
  H      258.783      56.247     -15.943
  H      257.023      57.572     -16.923
  H      259.237      59.433     -17.938
  H      257.497      61.170     -17.764
  H      257.011      59.913     -18.927
  P      256.939      56.184     -19.089
  C      258.135      54.061     -20.028
  O      257.548      55.315     -20.287
  O      255.923      57.204     -19.791
  O      256.357      55.416     -17.948
  H      256.388      57.937     -20.238
  H      257.643      53.548     -19.193
  H      259.193      54.198     -19.791
  H      258.049      53.434     -20.923
  H      252.937      59.906     -20.635
  H      253.163      61.470     -19.890
  H      252.202      60.251     -19.087

 3  4  5  6  7  8  9  10  11  12  13  23  28  29  30  31  32 0
 6-311+G(2d,p)
 ****
 33  34 0
 6-311+G(2d,p)
 ****
 1  2  14  15  16  17  18  19  20  21  22  24  25  26 0
 3-21G
 ****
 27  35  36  37  38  39  40  41  42  43  44  45 0
 3-21G
 ****


