%nproc=1
%NoSave
%Mem=1900MB
#P OB98/GEN NMR

erre ene a

0 1
  C     -130.098    -898.650      -2.716
  O     -131.454    -898.300      -2.524
  H     -129.497    -898.190      -1.928
  H     -129.746    -898.280      -3.685
  H     -129.979    -899.740      -2.666
  P     -132.532    -899.000      -3.475
  C     -134.319    -897.220      -2.741
  O     -133.666    -897.900      -3.797
  C     -135.010    -895.970      -3.277
  O     -134.056    -894.960      -3.647
  C     -135.801    -896.210      -4.566
  O     -136.979    -896.960      -4.357
  C     -136.050    -894.770      -5.002
  O     -137.130    -894.180      -4.267
  C     -134.708    -894.100      -4.626
  N     -133.858    -893.860      -5.793
  C     -133.663    -892.530      -6.148
  O     -134.190    -891.620      -5.489
  N     -132.903    -892.240      -7.260
  C     -132.369    -893.220      -7.944
  N     -131.640    -892.870      -9.037
  C     -132.529    -894.630      -7.592
  C     -133.279    -894.890      -6.513
  O     -133.286    -900.000      -2.469
  O     -131.974    -899.650      -4.697
  H     -137.221    -893.260      -4.570
  H     -133.632    -899.570      -1.671
  H     -132.056    -895.410      -8.182
  H     -133.443    -895.910      -6.186
  H     -134.880    -893.130      -4.141
  H     -136.313    -894.700      -6.060
  H     -135.161    -896.680      -5.323
  H     -135.662    -895.560      -2.483
  H     -131.576    -891.870      -9.262
  H     -133.615    -896.950      -1.950
  H     -131.199    -893.520      -9.666
  H     -135.066    -897.900      -2.304
  P     -137.860    -897.470      -5.594
  C     -139.702    -898.350      -4.030
  O     -139.378    -897.470      -5.089
  O     -137.399    -898.750      -6.205
  O     -137.825    -896.220      -6.604
  H     -138.197    -895.400      -6.242
  H     -140.740    -898.252      -3.790
  H     -139.113    -898.106      -3.171
  H     -139.498    -899.357      -4.328

 6  7  8  9  10  11  12  13  14  15  16  26  30  31  32  33  35 0
 6-311+G(2d,p)
 ****
 37  38 0
 6-311+G(2d,p)
 ****
 1  2  3  4  5  17  18  19  20  21  22  23  24  25 0
 3-21G
 ****
 27  28  29  34  36  39  40  41  42  43  44  45  46 0
 3-21G
 ****


