%nproc=1
%NoSave
%Mem=1900MB
#P OB98/GEN NMR

erre ene a

0 1
  C     -544.618     307.954    -218.737
  O     -544.390     309.128    -217.959
  P     -544.619     310.531    -218.699
  C     -546.947     310.938    -217.616
  O     -546.207     310.763    -218.820
  C     -548.457     310.805    -217.893
  O     -548.841     309.459    -218.210
  C     -549.313     311.211    -216.702
  O     -549.416     312.631    -216.636
  C     -550.643     310.535    -217.040
  O     -551.428     311.339    -217.931
  C     -550.195     309.234    -217.746
  N     -552.576     304.855    -216.803
  C     -552.929     305.899    -217.648
  N     -554.064     305.729    -218.366
  N     -552.227     306.987    -217.773
  C     -551.119     307.022    -217.006
  C     -550.653     306.043    -216.151
  C     -551.443     304.829    -216.014
  O     -551.165     303.879    -215.294
  N     -549.455     306.402    -215.576
  C     -549.274     307.645    -215.988
  N     -550.210     308.040    -216.905
  O     -544.157     310.236    -220.207
  O     -543.852     311.656    -218.091
  H     -552.225     310.841    -218.194
  H     -543.328     310.707    -220.390
  H     -553.155     304.051    -216.736
  H     -548.458     308.282    -215.675
  H     -550.804     309.005    -218.611
  H     -551.248     310.374    -216.149
  H     -554.646     304.915    -218.319
  H     -548.911     310.801    -215.778
  H     -554.327     306.487    -218.997
  H     -548.690     311.451    -218.755
  H     -546.746     311.921    -217.182
  H     -546.627     310.189    -216.890
  P     -548.415     313.403    -215.655
  C     -547.280     314.734    -217.570
  O     -547.131     313.808    -216.504
  O     -547.893     312.237    -214.678
  O     -549.040     314.516    -214.870
  H     -547.888     312.564    -213.757
  H     -546.326     315.280    -217.687
  H     -548.080     315.442    -217.380
  H     -547.485     314.181    -218.493
  H     -544.434     307.087    -218.137
  H     -543.959     307.951    -219.580
  H     -545.632     307.943    -219.077

 3  4  5  6  7  8  9  10  11  12  23  26  30  31 0
 6-311+G(2d,p)
 ****
 33  35  36  37  38 0
 6-311+G(2d,p)
 ****
 1  2  13  14  15  16  17  18  19  20  21  22  24  25 0
 3-21G
 ****
 27  28  29  32  34  39  40  41  42  43  44  45  46  47  48  49 0
 3-21G
 ****


