%nproc=1
%NoSave
%Mem=1900MB
#P OB98/GEN NMR

erre ene a

0 1
  C       92.518     234.086     -38.320
  O       93.665     234.594     -38.970
  H       92.435     233.019     -38.541
  H       91.621     234.589     -38.690
  H       92.596     234.214     -37.237
  P       94.107     236.108     -38.686
  C       93.396     237.121     -40.949
  O       94.479     236.759     -40.102
  C       93.688     238.463     -41.618
  O       93.688     239.521     -40.634
  C       95.051     238.528     -42.295
  O       95.044     237.835     -43.528
  C       95.240     240.032     -42.412
  O       94.525     240.554     -43.542
  C       94.619     240.529     -41.088
  N       95.622     240.821     -40.065
  C       95.462     242.010     -39.360
  O       94.557     242.812     -39.585
  N       96.405     242.265     -38.399
  C       97.524     241.523     -38.160
  O       98.385     241.844     -37.348
  C       97.654     240.291     -38.951
  C       96.712     240.000     -39.850
  O       95.131     236.294     -37.617
  O       92.731     236.837     -38.309
  H       94.715     239.953     -44.289
  H       92.698     236.988     -37.346
  H       96.314     243.128     -37.888
  H       98.521     239.669     -38.779
  H       96.794     239.100     -40.447
  H       94.034     241.441     -41.261
  H       96.286     240.309     -42.539
  H       95.822     238.127     -41.629
  H       92.884     238.670     -42.337
  H       92.488     237.206     -40.343
  H       93.253     236.336     -41.698
  P       96.059     236.621     -43.765
  C       97.995     238.171     -44.437
  O       97.150     237.099     -44.839
  O       95.422     235.302     -44.055
  O       96.899     236.556     -42.404
  H       96.769     235.685     -41.985
  H       98.678     238.403     -45.228
  H       98.544     237.885     -43.564
  H       97.399     239.032     -44.217

 6  7  8  9  10  11  12  13  14  15  16  26  31  32  33  34  35 0
 6-311+G(2d,p)
 ****
 36  37 0
 6-311+G(2d,p)
 ****
 1  2  3  4  5  17  18  19  20  21  22  23  24  25 0
 3-21G
 ****
 27  28  29  30  38  39  40  41  42  43  44  45 0
 3-21G
 ****


