%nproc=1
%NoSave
%Mem=1900MB
#P OB98/GEN NMR

erre ene a

0 1
  C      111.382    -899.370     787.130
  O      112.574    -898.780     787.623
  P      113.430    -897.850     786.617
  C      113.207    -895.722     788.125
  O      112.906    -896.343     786.900
  C      113.690    -894.295     787.887
  O      112.630    -893.480     787.352
  C      114.202    -893.582     789.125
  O      115.547    -893.931     789.431
  C      114.055    -892.135     788.740
  O      115.153    -891.682     787.913
  C      112.744    -892.154     787.933
  N      109.329    -888.564     788.926
  C      110.517    -888.479     788.214
  N      110.805    -887.281     787.645
  N      111.333    -889.501     788.048
  C      110.901    -890.596     788.707
  C      109.770    -890.805     789.473
  C      108.841    -889.716     789.571
  O      107.754    -889.739     790.096
  N      109.696    -892.105     789.934
  C      110.792    -892.669     789.475
  N      111.560    -891.828     788.687
  O      112.785    -898.200     785.185
  O      114.895    -898.010     786.647
  H      115.972    -891.697     788.417
  H      113.330    -898.860     784.711
  H      108.704    -887.765     789.009
  H      111.074    -893.686     789.647
  H      112.776    -891.434     787.078
  H      114.023    -891.448     789.617
  H      110.229    -886.476     787.772
  H      113.521    -893.800     789.979
  H      111.658    -887.235     787.120
  H      114.494    -894.334     787.131
  H      114.016    -896.297     788.635
  H      112.331    -895.727     788.760
  P      115.857    -894.569     790.876
  C      116.373    -896.983     790.006
  O      115.536    -896.140     790.808
  O      114.675    -893.971     791.785
  O      117.196    -894.233     791.418
  H      115.033    -893.799     792.687
  H      116.360    -897.980     790.455
  H      117.386    -896.579     789.956
  H      115.943    -897.040     788.993
  H      110.927    -899.953     787.903
  H      111.614    -900.000     786.297
  H      110.706    -898.601     786.818

 3  4  5  6  7  8  9  10  11  12  23  26  30  31 0
 6-311+G(2d,p)
 ****
 33  35  36  37  38 0
 6-311+G(2d,p)
 ****
 1  2  13  14  15  16  17  18  19  20  21  22  24  25 0
 3-21G
 ****
 27  28  29  32  34  39  40  41  42  43  44  45  46  47  48  49 0
 3-21G
 ****


