%nproc=1
%NoSave
%Mem=1900MB
#P OB98/GEN NMR

erre ene a

0 1
  C      163.357     -22.313    -133.415
  O      164.097     -21.823    -132.316
  H      163.552     -23.385    -133.521
  H      163.672     -21.810    -134.332
  H      162.283     -22.167    -133.263
  P      163.792     -20.347    -131.772
  C      165.573     -19.321    -133.331
  O      164.207     -19.331    -132.944
  C      166.126     -17.893    -133.332
  O      165.408     -17.119    -134.344
  C      165.958     -17.153    -131.987
  O      167.068     -16.256    -131.853
  C      164.667     -16.393    -132.231
  O      164.459     -15.391    -131.271
  C      164.895     -15.946    -133.677
  N      163.692     -15.446    -134.332
  C      163.415     -14.087    -134.211
  O      164.134     -13.292    -133.610
  N      162.256     -13.662    -134.806
  C      161.369     -14.444    -135.486
  O      160.356     -14.004    -136.018
  C      161.701     -15.877    -135.554
  C      162.830     -16.306    -134.983
  O      164.351     -20.022    -130.427
  O      162.191     -20.266    -131.780
  H      161.851     -20.447    -130.884
  H      165.124     -14.676    -131.371
  H      162.040     -12.679    -134.728
  H      161.006     -16.527    -136.068
  H      163.106     -17.355    -135.012
  H      165.677     -15.181    -133.728
  H      163.810     -17.071    -132.167
  H      165.927     -17.830    -131.130
  H      167.178     -17.919    -133.641
  H      165.648     -19.749    -134.336
  H      166.149     -19.943    -132.635
  P      168.325     -16.544    -130.894
  C      167.529     -15.162    -128.867
  O      167.856     -16.454    -129.361
  O      169.517     -15.696    -131.200
  O      168.671     -18.094    -131.100
  H      169.638     -18.217    -131.048
  H      167.234     -15.237    -127.841
  H      166.723     -14.754    -129.441
  H      168.383     -14.523    -128.947

 6  7  8  9  10  11  12  13  14  15  16  27  31  32  33  34  35 0
 6-311+G(2d,p)
 ****
 36  37 0
 6-311+G(2d,p)
 ****
 1  2  3  4  5  17  18  19  20  21  22  23  24  25 0
 3-21G
 ****
 26  28  29  30  38  39  40  41  42  43  44  45 0
 3-21G
 ****


