%nproc=1
%NoSave
%Mem=1900MB
#P OB98/GEN NMR

erre ene a

0 1
  C     -375.016     -28.642     -77.592
  O     -374.657     -29.779     -76.826
  P     -375.546     -31.109     -76.992
  C     -376.768     -30.672     -74.734
  O     -376.882     -30.879     -76.130
  C     -377.920     -31.362     -73.993
  O     -379.165     -30.731     -74.390
  C     -378.063     -32.861     -74.281
  O     -378.570     -33.469     -73.086
  C     -379.128     -32.903     -75.364
  O     -379.771     -34.170     -75.456
  C     -380.032     -31.762     -74.916
  N     -383.941     -32.640     -78.006
  C     -383.352     -33.464     -77.064
  N     -383.927     -34.673     -76.886
  N     -382.299     -33.138     -76.364
  C     -381.843     -31.890     -76.642
  C     -382.312     -31.001     -77.576
  C     -383.501     -31.361     -78.319
  O     -384.106     -30.626     -79.097
  N     -381.536     -29.872     -77.634
  C     -380.643     -30.050     -76.675
  N     -380.818     -31.240     -76.019
  O     -374.729     -32.193     -76.143
  O     -375.795     -31.548     -78.400
  H     -380.452     -34.112     -76.151
  H     -374.120     -32.700     -76.716
  H     -384.767     -32.942     -78.501
  H     -379.860     -29.360     -76.413
  H     -380.729     -32.062     -74.125
  H     -378.671     -32.690     -76.338
  H     -384.761     -34.983     -77.367
  H     -377.128     -33.340     -74.588
  H     -383.536     -35.287     -76.176
  H     -377.792     -31.187     -72.918
  H     -376.816     -29.599     -74.529
  H     -375.803     -31.050     -74.379
  P     -378.023     -34.926     -72.698
  C     -380.363     -35.961     -73.123
  O     -378.974     -36.005     -73.398
  O     -378.415     -35.049     -71.143
  O     -376.556     -35.121     -72.892
  H     -377.750     -35.593     -70.685
  H     -380.899     -36.453     -73.936
  H     -380.724     -34.932     -73.034
  H     -380.564     -36.495     -72.191
  H     -374.340     -27.840     -77.379
  H     -376.013     -28.344     -77.343
  H     -374.966     -28.883     -78.633

 3  4  5  6  7  8  9  10  11  12  23  26  30  31 0
 6-311+G(2d,p)
 ****
 33  35  36  37  38 0
 6-311+G(2d,p)
 ****
 1  2  13  14  15  16  17  18  19  20  21  22  24  25 0
 3-21G
 ****
 27  28  29  32  34  39  40  41  42  43  44  45  46  47  48  49 0
 3-21G
 ****


