%nproc=1
%NoSave
%Mem=1900MB
#P OB98/GEN NMR

erre ene a

0 1
  C     -235.851    -296.261      82.558
  O     -236.729    -295.524      81.728
  H     -234.820    -296.141      82.217
  H     -235.932    -295.879      83.580
  H     -236.128    -297.319      82.553
  P     -236.737    -295.900      80.170
  C     -239.118    -296.734      79.575
  O     -237.802    -297.092      79.980
  C     -240.147    -297.384      80.501
  O     -239.988    -296.813      81.825
  C     -241.610    -297.198      80.072
  O     -242.242    -298.467      79.897
  C     -242.267    -296.496      81.250
  O     -243.575    -296.977      81.538
  C     -241.301    -296.758      82.401
  N     -242.406    -295.820      87.284
  C     -242.042    -296.957      86.656
  N     -241.657    -297.122      85.375
  C     -241.640    -295.939      84.730
  C     -241.960    -294.692      85.248
  C     -242.376    -294.658      86.587
  N     -242.796    -293.509      87.214
  N     -241.831    -293.715      84.273
  C     -241.485    -294.363      83.181
  N     -241.376    -295.714      83.405
  O     -235.321    -296.629      79.962
  O     -236.906    -294.746      79.240
  H     -243.482    -297.918      81.769
  H     -234.878    -296.262      79.174
  H     -242.073    -297.862      87.260
  H     -241.346    -293.925      82.203
  H     -241.497    -297.718      82.892
  H     -242.334    -295.421      81.027
  H     -241.708    -296.606      79.154
  H     -239.907    -298.456      80.584
  H     -239.293    -297.090      78.552
  H     -243.187    -293.593      88.138
  H     -242.882    -292.662      86.668
  H     -239.216    -295.646      79.590
  P     -242.337    -299.030      78.392
  C     -240.951    -301.231      78.264
  O     -240.975    -299.824      78.087
  O     -242.197    -297.697      77.509
  O     -243.601    -299.762      78.097
  H     -242.644    -297.816      76.649
  H     -239.978    -301.605      78.021
  H     -241.678    -301.684      77.622
  H     -241.179    -301.466      79.283

 6  7  8  9  10  11  12  13  14  15  25  28  32  33  34  35 0
 6-311+G(2d,p)
 ****
 36  39  40 0
 6-311+G(2d,p)
 ****
 1  2  3  4  5  16  17  18  19  20  21  22  23  24 0
 3-21G
 ****
 26  27  29  30  31  37  38  41  42  43  44  45  46  47  48 0
 3-21G
 ****


