%nproc=1
%NoSave
%Mem=1900MB
#P OB98/GEN NMR

erre ene a

0 1
  C      732.562     -56.257    -454.289
  O      731.580     -56.704    -453.370
  H      733.009     -57.128    -454.773
  H      733.341     -55.703    -453.761
  H      732.099     -55.622    -455.053
  P      730.791     -55.568    -452.561
  C      728.676     -55.588    -454.091
  O      729.811     -54.868    -453.621
  C      727.498     -55.420    -453.121
  O      727.078     -54.021    -453.134
  C      726.268     -56.255    -453.497
  O      725.555     -56.560    -452.279
  C      725.460     -55.267    -454.320
  O      724.136     -55.718    -454.499
  C      725.682     -54.007    -453.493
  N      722.767     -49.809    -453.441
  C      722.912     -50.804    -452.547
  N      723.718     -51.887    -452.627
  C      724.443     -51.858    -453.759
  C      724.411     -50.903    -454.757
  C      723.514     -49.830    -454.568
  N      723.357     -48.806    -455.481
  N      725.285     -51.221    -455.773
  C      725.847     -52.359    -455.389
  N      725.357     -52.779    -454.185
  O      731.911     -54.457    -452.292
  O      730.132     -56.017    -451.301
  H      723.610     -55.060    -454.999
  H      732.302     -54.588    -451.407
  H      722.300     -50.734    -451.654
  H      726.594     -52.908    -455.948
  H      725.104     -54.023    -452.564
  H      725.888     -55.156    -455.324
  H      726.509     -57.188    -454.015
  H      727.840     -55.638    -452.103
  H      728.945     -56.651    -454.167
  H      728.394     -55.214    -455.081
  H      722.684     -48.086    -455.277
  H      723.902     -48.829    -456.333
  P      725.096     -58.075    -452.000
  C      726.692     -58.536    -449.975
  O      726.312     -58.856    -451.307
  O      725.092     -58.701    -453.473
  O      723.760     -58.239    -451.353
  H      724.444     -59.428    -453.519
  H      727.515     -59.153    -449.681
  H      725.865     -58.707    -449.317
  H      726.982     -57.507    -449.924

 6  7  8  9  10  11  12  13  14  15  25  28  32  33  34  35 0
 6-311+G(2d,p)
 ****
 36  37  40 0
 6-311+G(2d,p)
 ****
 1  2  3  4  5  16  17  18  19  20  21  22  23  24 0
 3-21G
 ****
 26  27  29  30  31  38  39 41  42  43  44  45  46  47  48 0
 3-21G
 ****


