%nproc=1
%NoSave
%Mem=1900MB
#P OB98/GEN NMR

erre ene a

0 1
  C     -361.326     458.689     345.546
  O     -362.607     458.976     346.073
  H     -360.892     457.856     346.110
  H     -360.671     459.559     345.647
  H     -361.401     458.396     344.492
  P     -363.505     460.099     345.362
  C     -363.534     461.536     347.498
  O     -364.316     460.851     346.524
  C     -364.207     461.479     348.869
  O     -364.163     460.118     349.358
  C     -363.546     462.385     349.919
  O     -364.568     462.951     350.737
  C     -362.709     461.417     350.732
  O     -362.488     461.883     352.066
  C     -363.551     460.140     350.661
  N     -361.557     457.077     354.160
  C     -362.415     458.150     354.303
  N     -362.775     458.491     355.557
  N     -362.870     458.853     353.289
  C     -362.436     458.401     352.087
  C     -361.595     457.352     351.818
  C     -361.084     456.596     352.945
  O     -360.312     455.639     352.887
  N     -361.369     457.217     350.466
  C     -362.078     458.199     349.920
  N     -362.735     458.949     350.862
  O     -364.353     459.614     344.229
  O     -362.447     461.198     344.882
  H     -362.061     462.766     351.994
  H     -362.253     461.095     343.930
  H     -361.229     456.577     354.969
  H     -362.139     458.408     348.865
  H     -364.341     460.118     351.421
  H     -361.730     461.273     350.245
  H     -362.475     457.990     356.380
  H     -362.940     463.182     349.470
  H     -363.415     459.263     355.680
  H     -365.270     461.742     348.745
  H     -363.422     462.578     347.178
  H     -362.539     461.075     347.551
  P     -364.537     464.525     351.033
  C     -365.536     464.127     353.382
  O     -365.642     464.845     352.157
  O     -364.574     465.410     349.840
  O     -363.164     464.708     351.850
  H     -362.807     465.600     351.676
  H     -366.323     464.428     354.041
  H     -364.590     464.336     353.837
  H     -365.615     463.078     353.188

 6  7  8  9  10  11  12  13  14  15  26  29  33  34 0
 6-311+G(2d,p)
 ****
 36  38  39  40  41 0
 6-311+G(2d,p)
 ****
 1  2  3  4  5  16  17  18  19  20  21  22  23  24  25 0
 3-21G
 ****
 27  28  30  31  32  35  37  42  43  44  45  46  47 0
 3-21G
 ****
 48  49 0
 3-21G
 ****


