%nproc=1
%NoSave
%Mem=1900MB
#P OB98/GEN NMR

erre ene a

0 1
  C     -306.466    -419.559    -157.860
  O     -306.305    -418.184    -158.130
  H     -306.412    -420.111    -158.801
  H     -307.444    -419.743    -157.403
  H     -305.672    -419.921    -157.195
  P     -306.210    -417.155    -156.904
  C     -303.924    -416.041    -157.326
  O     -305.338    -415.903    -157.407
  C     -303.262    -415.155    -158.380
  O     -303.675    -415.552    -159.702
  C     -303.616    -413.678    -158.257
  O     -302.915    -413.077    -157.185
  C     -303.222    -413.182    -159.643
  O     -301.804    -412.988    -159.739
  C     -303.670    -414.366    -160.533
  N     -304.983    -414.148    -161.153
  C     -305.148    -412.935    -161.807
  O     -304.268    -412.072    -161.879
  N     -306.389    -412.716    -162.353
  C     -307.473    -413.537    -162.218
  O     -308.614    -413.210    -162.524
  C     -307.212    -414.840    -161.582
  C     -306.000    -415.072    -161.072
  O     -305.780    -417.742    -155.599
  O     -307.690    -416.547    -156.811
  H     -308.175    -416.980    -156.084
  H     -301.559    -412.346    -159.042
  H     -306.540    -411.815    -162.787
  H     -308.032    -415.546    -161.513
  H     -305.795    -416.012    -160.572
  H     -302.940    -414.544    -161.333
  H     -303.690    -412.226    -159.893
  H     -304.696    -413.560    -158.133
  H     -302.171    -415.301    -158.308
  H     -303.664    -417.088    -157.514
  H     -303.596    -415.761    -156.322
  P     -303.694    -412.360    -155.984
  C     -302.276    -413.777    -154.394
  O     -302.799    -412.489    -154.661
  O     -305.117    -412.778    -155.814
  O     -303.599    -410.794    -156.335
  H     -304.498    -410.409    -156.331
  H     -301.699    -413.748    -153.494
  H     -301.653    -414.085    -155.208
  H     -303.081    -414.472    -154.279

 6  7  8  9  10  11  12  13  14  15  16  27  31  32  33  34  35 0
 6-311+G(2d,p)
 ****
 36  37 0
 6-311+G(2d,p)
 ****
 1  2  3  4  5  17  18  19  20  21  22  23  24  25 0
 3-21G
 ****
 26  28  29  30  38  39  40  41  42  43  44  45 0
 3-21G
 ****


