%nproc=1
%NoSave
%Mem=1900MB
#P OB98/GEN NMR

erre ene a

0 1
  C       77.960      59.732    -101.282
  O       78.464      59.397    -102.561
  P       77.596      58.522    -103.579
  C       75.293      58.803    -104.664
  O       76.083      59.059    -103.510
  C       73.861      58.424    -104.284
  O       73.870      57.114    -103.653
  C       73.177      59.395    -103.311
  O       71.788      59.415    -103.656
  C       73.358      58.706    -101.968
  O       72.429      59.152    -100.987
  C       73.193      57.250    -102.385
  N       72.318      54.572     -98.120
  C       71.553      55.449     -98.803
  N       71.867      56.141     -99.916
  C       73.115      55.851    -100.320
  C       74.023      55.002     -99.710
  C       73.575      54.325     -98.561
  N       74.330      53.401     -97.873
  N       75.226      55.013    -100.393
  C       75.042      55.850    -101.392
  N       73.763      56.331    -101.425
  O       77.738      57.044    -103.432
  O       78.086      59.008    -105.023
  H       71.542      59.177    -101.393
  H       78.651      58.321    -105.429
  H       70.555      55.613     -98.407
  H       75.794      56.142    -102.112
  H       72.142      56.978    -102.531
  H       74.369      58.901    -101.589
  H       73.594      60.406    -103.324
  H       73.276      58.333    -105.207
  H       75.751      57.975    -105.211
  H       73.865      52.880     -97.146
  H       75.153      53.005     -98.324
  H       75.288      59.686    -105.313
  P       70.894      60.697    -103.299
  C       70.957      63.160    -103.988
  O       71.711      61.976    -103.808
  O       70.406      60.765    -101.891
  O       69.678      60.606    -104.343
  H       68.943      61.168    -104.035
  H       70.438      63.118    -104.951
  H       71.635      64.017    -103.986
  H       70.222      63.287    -103.187
  H       78.685      60.317    -100.755
  H       77.757      58.836    -100.733
  H       77.057      60.296    -101.391

 3  4  5  6  7  8  9  10  11  12  22  25  29  30  31  32 0
 6-311+G(2d,p)
 ****
 33  36  37 0
 6-311+G(2d,p)
 ****
 1  2  13  14  15  16  17  18  19  20  21  23  24  26 0
 3-21G
 ****
 27  28  34  35  38  39  40  41  42  43  44  45  46  47  48 0
 3-21G
 ****


