%nproc=1
%NoSave
%Mem=1900MB
#P OB98/GEN NMR

erre ene a

0 1
  C      223.161     286.901     233.803
  O      222.535     285.641     233.573
  P      221.542     285.098     234.719
  C      223.422     283.681     235.837
  O      222.456     284.716     235.977
  C      224.004     283.311     237.199
  O      224.756     284.417     237.738
  C      222.964     282.976     238.263
  O      222.419     281.682     238.062
  C      223.794     283.123     239.528
  O      224.611     281.957     239.726
  C      224.679     284.340     239.188
  N      225.265     287.971     242.752
  C      225.944     286.820     242.521
  N      225.713     285.896     241.566
  C      224.668     286.258     240.797
  C      223.873     287.384     240.932
  C      224.208     288.275     241.961
  N      223.525     289.449     242.201
  N      222.882     287.399     239.970
  C      223.078     286.301     239.264
  N      224.146     285.585     239.715
  O      221.084     283.672     234.150
  O      220.378     285.988     235.014
  H      225.099     282.081     240.574
  H      220.163     283.477     234.402
  H      226.773     286.617     243.186
  H      222.476     286.001     238.421
  H      225.705     284.228     239.567
  H      223.185     283.257     240.437
  H      222.155     283.717     238.258
  H      224.693     282.463     237.064
  H      224.235     284.024     235.188
  H      223.732     289.947     243.050
  H      222.648     289.592     241.710
  H      222.950     282.814     235.366
  P      220.922     281.421     238.584
  C      222.062     279.923     240.339
  O      221.131     280.967     240.122
  O      220.567     280.032     237.859
  O      219.970     282.545     238.360
  H      221.270     279.373     237.964
  H      222.141     279.750     241.410
  H      223.049     280.196     239.954
  H      221.721     279.002     239.857
  H      223.790     287.144     232.972
  H      223.751     286.849     234.694
  H      222.412     287.656     233.916

 3  4  5  6  7  8  9  10  11  12  22  25  29  30  31  32 0
 6-311+G(2d,p)
 ****
 33  36  37 0
 6-311+G(2d,p)
 ****
 1  2  13  14  15  16  17  18  19  20  21  23  24  26 0
 3-21G
 ****
 27  28  34  35  38  39  40  41  42  43  44  45  46  47  48 0
 3-21G
 ****


