%nproc=1
%NoSave
%Mem=1900MB
#P OB98/GEN NMR

erre ene a

0 1
  C      149.304     247.667     508.629
  O      149.348     247.687     510.048
  P      148.266     246.803     510.846
  C      145.911     247.267     511.920
  O      147.105     247.786     511.345
  C      144.930     248.399     512.268
  O      145.421     249.092     513.432
  C      144.760     249.467     511.197
  O      143.549     250.183     511.452
  C      145.947     250.372     511.470
  O      145.774     251.658     510.879
  C      146.023     250.352     513.018
  N      147.404     250.463     513.549
  C      147.818     251.698     514.044
  O      147.127     252.710     514.075
  N      149.116     251.759     514.490
  C      150.006     250.712     514.511
  O      151.177     250.838     514.847
  C      149.466     249.404     514.116
  C      148.215     249.349     513.645
  O      149.025     246.379     512.187
  O      147.782     245.617     510.071
  H      146.579     252.186     511.114
  H      149.293     245.453     512.145
  H      149.456     252.650     514.794
  H      150.105     248.536     514.182
  H      147.809     248.392     513.325
  H      145.436     251.182     513.455
  H      146.849     249.933     511.049
  H      144.766     249.090     510.160
  H      143.959     247.956     512.530
  H      146.163     246.689     512.824
  H      145.434     246.569     511.216
  P      142.546     250.424     510.218
  C      142.129     252.360     508.573
  O      143.048     251.767     509.483
  O      141.089     250.363     510.540
  O      142.964     249.273     509.179
  H      142.247     249.131     508.538
  H      142.311     253.435     508.556
  H      141.081     252.182     508.873
  H      142.295     251.948     507.572
  H      150.077     248.296     508.239
  H      148.352     248.024     508.297
  H      149.451     246.666     508.282

 3  4  5  6  7  8  9  10  11  12  13  23  28  29  30  31  32 0
 6-311+G(2d,p)
 ****
 33  34 0
 6-311+G(2d,p)
 ****
 1  2  14  15  16  17  18  19  20  21  22  24  25  26  27 0
 3-21G
 ****
 35  36  37  38  39  40  41  42  43  44  45 0
 3-21G
 ****


