%nproc=1
%NoSave
%Mem=1900MB
#P OB98/GEN NMR

erre ene a

0 1
  C     -234.955     -69.206      17.544
  O     -234.447     -70.411      16.996
  H     -234.151     -68.707      18.092
  H     -235.771     -69.431      18.239
  H     -235.310     -68.548      16.748
  P     -235.473     -71.281      16.115
  C     -236.624     -72.709      17.974
  O     -236.717     -71.605      17.080
  C     -237.985     -73.409      18.092
  O     -238.898     -72.525      18.812
  C     -238.638     -73.717      16.734
  O     -239.451     -74.897      16.876
  C     -239.545     -72.510      16.543
  O     -240.512     -72.767      15.551
  C     -240.057     -72.340      17.973
  N     -244.454     -69.756      17.962
  C     -244.174     -71.065      17.755
  N     -242.974     -71.679      17.788
  C     -242.000     -70.799      18.092
  C     -242.134     -69.438      18.317
  C     -243.432     -68.909      18.237
  N     -243.723     -67.576      18.423
  N     -240.896     -68.867      18.569
  C     -240.033     -69.870      18.500
  N     -240.660     -71.053      18.210
  O     -234.722     -72.690      15.973
  O     -235.839     -70.706      14.788
  H     -241.047     -73.555      15.772
  H     -234.195     -72.707      15.148
  H     -245.036     -71.699      17.544
  H     -238.965     -69.794      18.632
  H     -240.795     -73.112      18.243
  H     -238.973     -71.632      16.224
  H     -237.915     -73.865      15.928
  H     -237.870     -74.315      18.697
  H     -236.307     -72.335      18.953
  H     -235.878     -73.420      17.594
  H     -244.677     -67.275      18.320
  H     -242.963     -66.926      18.601
  P     -238.767     -76.344      16.656
  C     -239.228     -76.559      14.091
  O     -238.270     -76.500      15.138
  O     -240.047     -77.318      16.690
  O     -237.779     -76.753      17.699
  H     -239.856     -78.092      17.256
  H     -238.725     -76.663      13.152
  H     -239.808     -75.660      14.087
  H     -239.873     -77.399      14.245

 6  7  8  9  10  11  12  13  14  15  25  28  32  33  34  35 0
 6-311+G(2d,p)
 ****
 36  37  40 0
 6-311+G(2d,p)
 ****
 1  2  3  4  5  16  17  18  19  20  21  22  23  24 0
 3-21G
 ****
 26  27  29  30  31  38  39 41  42  43  44  45  46  47  48 0
 3-21G
 ****


