%nproc=1
%NoSave
%Mem=1900MB
#P OB98/GEN NMR

erre ene a

0 1
  C     -702.731     433.021     677.214
  O     -702.528     431.900     676.381
  H     -701.924     433.736     677.039
  H     -702.734     432.735     678.262
  H     -703.682     433.517     676.965
  P     -703.530     430.651     676.521
  C     -704.355     430.910     674.082
  O     -703.742     430.064     675.037
  C     -703.939     430.528     672.661
  O     -702.633     431.133     672.374
  C     -703.793     428.997     672.448
  O     -704.090     428.728     671.066
  C     -702.302     428.799     672.716
  O     -701.870     427.537     672.273
  C     -701.735     430.041     672.034
  N     -700.357     430.337     672.445
  C     -699.351     429.560     671.854
  O     -699.651     428.699     671.025
  N     -698.049     429.788     672.217
  C     -697.788     430.647     673.157
  N     -696.464     430.808     673.480
  C     -698.816     431.437     673.854
  C     -700.077     431.236     673.450
  O     -704.798     430.915     677.282
  O     -702.642     429.524     677.234
  H     -700.884     427.475     672.297
  H     -702.903     429.444     678.169
  H     -698.543     432.126     674.634
  H     -700.914     431.766     673.905
  H     -701.747     429.932     670.943
  H     -702.103     428.838     673.791
  H     -704.438     428.410     673.099
  H     -704.652     430.952     671.948
  H     -695.795     430.237     672.988
  H     -704.047     431.944     674.302
  H     -696.140     431.438     674.206
  H     -705.448     430.845     674.162
  P     -704.153     427.239     670.475
  C     -706.640     427.091     669.757
  O     -705.274     427.177     669.332
  O     -704.284     426.171     671.505
  O     -702.783     427.064     669.649
  H     -702.505     426.131     669.677
  H     -707.279     427.057     668.899
  H     -706.884     427.948     670.349
  H     -706.777     426.204     670.339

 6  7  8  9  10  11  12  13  14  15  16  26  30  31  32  33  35 0
 6-311+G(2d,p)
 ****
 37  38 0
 6-311+G(2d,p)
 ****
 1  2  3  4  5  17  18  19  20  21  22  23  24  25 0
 3-21G
 ****
 27  28  29  34  36  39  40  41  42  43  44  45  46 0
 3-21G
 ****


