%nproc=1
%NoSave
%Mem=1900MB
#P OB98/GEN NMR

erre ene a

0 1
  C     -637.169    2793.809    -191.593
  O     -637.358    2794.501    -192.797
  P     -638.862    2794.990    -193.202
  C     -638.257    2797.481    -192.879
  O     -639.123    2796.409    -192.510
  C     -638.562    2798.757    -192.123
  O     -639.873    2799.289    -192.506
  C     -638.555    2798.639    -190.628
  O     -638.008    2799.885    -190.089
  C     -639.997    2798.504    -190.289
  O     -640.286    2798.792    -188.921
  C     -640.618    2799.489    -191.302
  N     -642.058    2799.261    -191.507
  C     -642.914    2799.813    -190.573
  O     -642.460    2800.343    -189.561
  N     -644.298    2799.729    -190.782
  C     -644.710    2799.007    -191.791
  N     -646.068    2798.917    -191.977
  C     -643.804    2798.259    -192.707
  C     -642.509    2798.449    -192.520
  O     -639.916    2793.943    -192.987
  O     -638.707    2795.348    -194.764
  H     -641.274    2798.905    -188.806
  H     -639.545    2795.153    -195.189
  H     -644.211    2797.599    -193.456
  H     -641.784    2797.969    -193.153
  H     -640.457    2800.534    -190.976
  H     -640.370    2797.495    -190.476
  H     -637.937    2797.833    -190.241
  H     -637.834    2799.529    -192.459
  H     -646.674    2799.404    -191.302
  H     -638.360    2797.619    -193.988
  H     -646.498    2798.412    -192.772
  H     -637.225    2797.167    -192.749
  P     -636.822    2799.792    -189.038
  C     -634.768    2800.132    -190.565
  O     -635.501    2799.246    -189.780
  O     -637.249    2798.531    -188.114
  O     -636.650    2801.008    -188.120
  H     -636.878    2798.654    -187.215
  H     -633.769    2799.672    -190.749
  H     -634.615    2801.108    -190.071
  H     -635.226    2800.310    -191.515
  H     -636.133    2793.564    -191.481
  H     -637.749    2792.910    -191.603
  H     -637.480    2794.425    -190.775

 3  4  5  6  7  8  9  10  11  12  13  23  27  28  29  30  32 0
 6-311+G(2d,p)
 ****
 34  35 0
 6-311+G(2d,p)
 ****
 1  2  14  15  16  17  18  19  20  21  22  24  25  26 0
 3-21G
 ****
 31  33  36  37  38  39  40  41  42  43  44  45  46 0
 3-21G
 ****


