%nproc=1
%NoSave
%Mem=1900MB
#P OB98/GEN NMR

erre ene a

0 1
  C     -448.138     970.831    -889.540
  O     -448.907     969.876    -888.810
  H     -448.066     971.746    -888.940
  H     -448.611     971.074    -890.490
  H     -447.128     970.449    -889.720
  P     -449.288     968.499    -889.550
  C     -450.933     967.946    -891.460
  O     -450.624     968.812    -890.390
  C     -452.153     968.480    -892.240
  O     -451.707     969.447    -893.240
  C     -452.896     967.393    -893.000
  O     -453.693     966.618    -892.120
  C     -453.664     968.234    -894.010
  O     -454.827     968.800    -893.440
  C     -452.619     969.320    -894.350
  N     -451.863     969.030    -895.580
  C     -452.556     969.257    -896.790
  O     -453.718     969.681    -896.770
  N     -451.922     968.975    -897.970
  C     -450.700     968.506    -897.950
  N     -450.134     968.238    -899.160
  C     -449.934     968.269    -896.720
  C     -450.581     968.549    -895.590
  O     -449.366     967.278    -888.690
  O     -448.169     968.371    -890.690
  H     -455.407     968.043    -893.180
  H     -447.393     967.883    -890.360
  H     -448.922     967.887    -896.750
  H     -450.089     968.395    -894.630
  H     -453.092     970.293    -894.480
  H     -453.976     967.634    -894.870
  H     -452.172     966.767    -893.550
  H     -452.810     968.998    -891.530
  H     -450.686     968.408    -900.000
  H     -451.176     966.955    -891.040
  H     -449.158     967.969    -899.270
  H     -450.072     967.826    -892.140
  P     -454.073     965.107    -892.500
  C     -455.642     964.121    -894.300
  O     -455.394     965.203    -893.430
  O     -454.182     964.162    -891.360
  O     -452.926     964.684    -893.550
  H     -452.074     964.511    -893.110
  H     -456.538     964.307    -894.854
  H     -455.756     963.223    -893.729
  H     -454.820     964.012    -894.977

 6  7  8  9  10  11  12  13  14  15  16  26  30  31  32  33  35 0
 6-311+G(2d,p)
 ****
 37  38 0
 6-311+G(2d,p)
 ****
 1  2  3  4  5  17  18  19  20  21  22  23  24  25 0
 3-21G
 ****
 27  28  29  34  36  39  40  41  42  43  44  45  46 0
 3-21G
 ****


