%nproc=1
%NoSave
%Mem=1900MB
#P OB98/GEN NMR

erre ene a

0 1
  C     -449.947     158.642     329.665
  O     -451.233     158.896     330.206
  P     -452.502     158.034     329.745
  C     -452.961     159.667     327.815
  O     -452.701     158.316     328.178
  C     -453.935     159.731     326.636
  O     -454.224     161.118     326.340
  C     -453.384     159.095     325.363
  O     -454.453     158.456     324.665
  C     -452.912     160.279     324.529
  O     -452.927     159.969     323.129
  C     -453.903     161.366     324.963
  N     -453.498     165.556     322.016
  C     -454.167     164.393     321.836
  N     -454.210     163.314     322.649
  C     -453.507     163.541     323.771
  C     -452.774     164.674     324.092
  C     -452.781     165.719     323.153
  N     -452.107     166.908     323.339
  N     -452.156     164.526     325.323
  C     -452.524     163.335     325.739
  N     -453.348     162.704     324.843
  O     -453.727     158.220     330.569
  O     -451.986     156.520     329.775
  H     -452.704     160.795     322.647
  H     -452.694     155.928     330.098
  H     -454.741     164.317     320.919
  H     -452.221     162.879     326.671
  H     -454.829     161.322     324.378
  H     -451.882     160.537     324.809
  H     -452.578     158.380     325.554
  H     -454.876     159.252     326.932
  H     -452.018     160.137     327.522
  H     -452.272     167.642     322.668
  H     -451.725     167.101     324.257
  H     -453.366     160.207     328.676
  P     -454.103     157.045     323.971
  C     -453.745     158.138     321.633
  O     -453.184     157.427     322.715
  O     -455.326     156.234     323.703
  O     -453.100     156.415     325.051
  H     -452.663     157.115     325.586
  H     -452.978     158.268     320.864
  H     -454.080     159.124     321.963
  H     -454.583     157.588     321.207
  H     -449.239     159.318     330.097
  H     -449.972     158.781     328.604
  H     -449.660     157.635     329.886

 3  4  5  6  7  8  9  10  11  12  22  25  29  30  31  32 0
 6-311+G(2d,p)
 ****
 33  36  37 0
 6-311+G(2d,p)
 ****
 1  2  13  14  15  16  17  18  19  20  21  23  24  26 0
 3-21G
 ****
 27  28  34  35  38  39  40  41  42  43  44  45  46  47  48 0
 3-21G
 ****


