%nproc=1
%NoSave
%Mem=1900MB
#P OB98/GEN NMR

erre ene a

0 1
  C      343.818    -272.819      56.750
  O      344.070    -272.040      57.923
  P      343.661    -272.697      59.327
  C      346.083    -272.876      60.249
  O      344.903    -273.564      59.854
  C      347.266    -273.840      60.276
  O      347.512    -274.425      58.980
  C      348.581    -273.173      60.669
  O      348.624    -272.916      62.062
  C      349.585    -274.215      60.186
  O      349.683    -275.298      61.127
  C      348.928    -274.715      58.889
  N      351.816    -275.468      54.733
  C      351.457    -276.289      55.744
  N      350.687    -276.012      56.817
  C      350.262    -274.738      56.780
  C      350.538    -273.787      55.812
  C      351.362    -274.193      54.747
  N      351.737    -273.352      53.725
  N      349.925    -272.588      56.117
  C      349.308    -272.808      57.260
  N      349.471    -274.094      57.693
  O      342.575    -273.797      58.918
  O      343.110    -271.716      60.308
  H      348.806    -275.731      61.163
  H      341.686    -273.511      59.201
  H      351.842    -277.303      55.686
  H      348.736    -272.069      57.808
  H      349.031    -275.799      58.763
  H      350.592    -273.808      60.049
  H      348.712    -272.240      60.113
  H      347.034    -274.647      60.984
  H      345.947    -272.428      61.236
  H      352.393    -273.700      53.043
  H      351.479    -272.378      53.771
  H      346.260    -272.051      59.549
  P      348.258    -271.436      62.558
  C      346.410    -272.424      64.045
  O      346.709    -271.546      62.975
  O      348.192    -270.639      61.175
  O      349.169    -270.875      63.597
  H      347.696    -271.130      60.498
  H      345.336    -272.379      64.243
  H      346.952    -272.123      64.943
  H      346.676    -273.448      63.774
  H      344.133    -272.273      55.885
  H      342.771    -273.028      56.678
  H      344.362    -273.739      56.809

 3  4  5  6  7  8  9  10  11  12  22  25  29  30  31  32 0
 6-311+G(2d,p)
 ****
 33  36  37 0
 6-311+G(2d,p)
 ****
 1  2  13  14  15  16  17  18  19  20  21  23  24  26 0
 3-21G
 ****
 27  28  34  35  38  39  40  41  42  43  44  45  46  47  48 0
 3-21G
 ****


