%nproc=1
%NoSave
%Mem=1900MB
#P OB98/GEN NMR

erre ene a

0 1
  C      -20.660     -76.935     150.735
  O      -21.862     -76.959     151.512
  P      -22.169     -75.903     152.678
  C      -23.559     -77.305     154.341
  O      -23.571     -76.265     153.367
  C      -24.925     -77.468     155.011
  O      -25.227     -76.326     155.838
  C      -26.100     -77.590     154.046
  O      -26.151     -78.883     153.465
  C      -27.271     -77.257     154.966
  O      -27.674     -78.408     155.731
  C      -26.659     -76.179     155.884
  N      -27.072     -74.831     155.510
  C      -28.407     -74.500     155.747
  O      -29.192     -75.340     156.192
  N      -28.834     -73.225     155.448
  C      -28.013     -72.386     154.895
  N      -28.487     -71.139     154.628
  C      -26.620     -72.725     154.547
  C      -26.222     -73.951     154.883
  O      -22.053     -74.475     152.249
  O      -21.097     -76.228     153.825
  H      -28.459     -78.140     156.243
  H      -20.882     -75.404     154.302
  H      -25.979     -72.005     154.060
  H      -25.210     -74.280     154.672
  H      -26.948     -76.355     156.927
  H      -28.153     -76.913     154.417
  H      -26.022     -76.822     153.267
  H      -24.877     -78.351     155.666
  H      -29.444     -70.936     154.885
  H      -22.811     -77.052     155.104
  H      -27.932     -70.412     154.203
  H      -23.261     -78.241     153.855
  P      -25.680     -79.086     151.948
  C      -27.037     -81.238     151.591
  O      -25.747     -80.656     151.629
  O      -24.402     -78.416     151.572
  O      -26.903     -78.504     151.088
  H      -26.555     -78.129     150.259
  H      -26.992     -82.150     150.993
  H      -27.763     -80.555     151.144
  H      -27.350     -81.492     152.608
  H      -20.680     -77.733     150.022
  H      -19.815     -77.055     151.381
  H      -20.586     -75.999     150.221

 3  4  5  6  7  8  9  10  11  12  13  23  27  28  29  30  32 0
 6-311+G(2d,p)
 ****
 34  35 0
 6-311+G(2d,p)
 ****
 1  2  14  15  16  17  18  19  20  21  22  24  25  26 0
 3-21G
 ****
 31  33  36  37  38  39  40  41  42  43  44  45  46 0
 3-21G
 ****


