%nproc=1
%NoSave
%Mem=1900MB
#P OB98/GEN NMR

erre ene a

0 1
  C       68.149    -206.728      31.629
  O       67.084    -207.545      32.133
  P       67.005    -209.124      31.879
  C       67.260    -209.903      34.328
  O       66.411    -209.842      33.187
  C       66.462    -210.141      35.615
  O       65.785    -208.938      36.026
  C       65.374    -211.202      35.504
  O       65.929    -212.506      35.515
  C       64.510    -210.864      36.713
  O       65.055    -211.432      37.915
  C       64.600    -209.321      36.749
  N       63.410    -208.681      36.201
  C       62.251    -208.753      36.978
  O       62.245    -209.380      38.042
  N       61.111    -208.126      36.523
  C       61.110    -207.550      35.362
  N       59.966    -206.941      34.965
  C       62.290    -207.535      34.469
  C       63.393    -208.108      34.954
  O       68.281    -209.730      31.383
  O       65.839    -209.313      30.792
  H       65.099    -212.400      37.765
  H       66.039    -210.096      30.246
  H       62.244    -207.067      33.496
  H       64.305    -208.133      34.364
  H       64.742    -208.970      37.777
  H       63.485    -211.236      36.618
  H       64.793    -211.043      34.586
  H       67.179    -210.409      36.406
  H       59.178    -206.966      35.604
  H       67.794    -208.944      34.404
  H       59.859    -206.468      34.082
  H       67.993    -210.703      34.184
  P       65.023    -213.757      35.091
  C       66.508    -214.274      33.065
  O       65.949    -214.769      34.266
  O       63.715    -213.426      34.450
  O       64.795    -214.541      36.475
  H       63.922    -214.978      36.449
  H       67.395    -214.866      32.819
  H       66.794    -213.225      33.163
  H       65.776    -214.380      32.258
  H       67.989    -205.712      31.923
  H       68.172    -206.791      30.561
  H       69.081    -207.072      32.026

 3  4  5  6  7  8  9  10  11  12  13  23  27  28  29  30  32 0
 6-311+G(2d,p)
 ****
 34  35 0
 6-311+G(2d,p)
 ****
 1  2  14  15  16  17  18  19  20  21  22  24  25  26 0
 3-21G
 ****
 31  33  36  37  38  39  40  41  42  43  44  45  46 0
 3-21G
 ****


