%nproc=1
%NoSave
%Mem=1900MB
#P OB98/GEN NMR

erre ene a

0 1
  C     -337.813     469.840      62.298
  O     -338.976     469.513      63.066
  P     -340.317     469.185      62.238
  C     -340.636     466.747      63.104
  O     -341.128     468.079      63.081
  C     -341.037     466.046      64.402
  O     -340.224     466.499      65.508
  C     -342.476     466.306      64.834
  O     -343.395     465.495      64.118
  C     -342.421     465.898      66.302
  O     -342.560     464.467      66.416
  C     -341.006     466.335      66.714
  N     -341.107     468.494      71.302
  C     -341.153     467.163      70.950
  N     -341.199     466.273      71.968
  N     -341.144     466.736      69.712
  C     -341.063     467.730      68.799
  C     -341.015     469.085      69.022
  C     -341.058     469.552      70.394
  O     -341.057     470.719      70.762
  N     -340.928     469.787      67.847
  C     -340.887     468.856      66.917
  N     -340.982     467.591      67.443
  O     -339.767     468.359      60.984
  O     -341.091     470.389      61.829
  H     -342.560     464.258      67.372
  H     -340.376     468.461      60.226
  H     -341.125     468.771      72.267
  H     -340.793     469.038      65.853
  H     -340.508     465.574      67.324
  H     -343.226     466.340      66.895
  H     -341.139     466.528      72.939
  H     -342.725     467.375      64.757
  H     -341.193     465.291      71.734
  H     -340.874     464.967      64.272
  H     -339.547     466.752      63.017
  H     -341.023     466.204      62.232
  P     -344.959     465.802      64.330
  C     -345.435     466.063      61.793
  O     -345.673     465.329      62.973
  O     -345.024     467.397      64.271
  O     -345.526     465.259      65.599
  H     -345.779     467.725      64.808
  H     -344.371     466.322      61.692
  H     -346.031     466.980      61.797
  H     -345.725     465.457      60.932
  H     -336.994     470.036      62.958
  H     -338.010     470.709      61.705
  H     -337.567     469.019      61.657

 3  4  5  6  7  8  9  10  11  12  23  26  30  31  33  0
 6-311+G(2d,p)
 ****
 35  36  37  38 0
 6-311+G(2d,p)
 ****
 1  2  13  14  15  16  17  18  19  20  21  22  24  25  27  28  29 0
 3-21G
 ****
 32  34  39  40  41  42  43  44  45  46  47  48  49 0
 3-21G
 ****


