%nproc=1
%NoSave
%Mem=1900MB
#P OB98/GEN NMR

erre ene a

0 1
  C     -890.118    -189.649     299.603
  O     -890.978    -190.681     300.046
  H     -890.058    -189.690     298.515
  H     -889.108    -189.793     300.007
  H     -890.508    -188.671     299.896
  P     -891.328    -190.787     301.614
  C     -893.858    -191.036     301.392
  O     -892.658    -191.676     301.729
  C     -894.678    -191.884     300.403
  O     -893.858    -192.162     299.238
  C     -895.128    -193.238     300.986
  O     -896.438    -193.538     300.485
  C     -894.128    -194.225     300.404
  O     -894.658    -195.534     300.303
  C     -893.808    -193.583     299.047
  N     -891.408    -196.842     296.025
  C     -892.758    -196.657     296.219
  N     -893.608    -197.455     295.546
  N     -893.248    -195.736     297.042
  C     -892.298    -194.992     297.642
  C     -890.918    -195.085     297.516
  C     -890.408    -196.110     296.632
  O     -889.208    -196.335     296.428
  N     -890.298    -194.164     298.322
  C     -891.258    -193.513     298.917
  N     -892.508    -193.992     298.549
  O     -891.368    -189.499     302.347
  O     -890.188    -191.761     302.192
  H     -893.978    -196.099     299.888
  H     -889.478    -191.234     302.629
  H     -891.088    -197.562     295.394
  H     -891.138    -192.708     299.628
  H     -894.538    -193.858     298.269
  H     -893.228    -194.253     301.045
  H     -893.308    -198.164     294.898
  H     -895.138    -193.250     302.080
  H     -894.598    -197.318     295.667
  H     -895.538    -191.301     300.049
  H     -893.628    -190.066     300.927
  H     -894.458    -190.860     302.303
  P     -897.698    -193.238     301.426
  C     -899.078    -192.389     299.409
  O     -899.008    -193.299     300.513
  O     -897.588    -192.048     302.318
  O     -897.808    -194.611     302.288
  H     -898.198    -194.389     303.147
  H     -900.000    -192.534     298.885
  H     -898.259    -192.569     298.746
  H     -899.029    -191.384     299.772

 6  7  8  9  10  11  12  13  14  15  26  29  33  34 0
 6-311+G(2d,p)
 ****
 36  38  39  40  41 0
 6-311+G(2d,p)
 ****
 1  2  3  4  5  16  17  18  19  20  21  22  23  24  25 0
 3-21G
 ****
 27  28  30  31  32  35  37  42  43  44  45  46  47 0
 3-21G
 ****
 48  49 0
 3-21G
 ****


