%nproc=1
%NoSave
%Mem=1900MB
#P OB98/GEN NMR

erre ene a

0 1
  C     -664.174     -83.925    -445.449
  O     -665.140     -84.890    -445.072
  P     -666.583     -84.438    -444.539
  C     -665.967     -83.413    -442.256
  O     -666.503     -84.532    -442.938
  C     -666.400     -83.409    -440.784
  O     -667.783     -83.013    -440.665
  C     -666.299     -84.772    -440.103
  O     -664.961     -85.069    -439.776
  C     -667.219     -84.569    -438.911
  O     -666.526     -83.909    -437.848
  C     -668.325     -83.663    -439.488
  N     -669.544     -84.400    -439.807
  C     -670.532     -84.388    -438.811
  O     -670.332     -83.823    -437.736
  N     -671.696     -85.085    -439.031
  C     -671.855     -85.750    -440.150
  N     -673.036     -86.421    -440.312
  C     -670.823     -85.807    -441.206
  C     -669.710     -85.120    -440.963
  O     -667.744     -85.145    -445.167
  O     -666.581     -82.857    -444.797
  H     -666.241     -83.018    -438.216
  H     -666.694     -82.649    -445.756
  H     -670.995     -86.372    -442.107
  H     -668.897     -85.104    -441.685
  H     -668.578     -82.873    -438.784
  H     -667.594     -85.526    -438.510
  H     -666.723     -85.542    -440.771
  H     -665.769     -82.669    -440.243
  H     -673.690     -86.377    -439.534
  H     -666.348     -82.503    -442.745
  H     -673.240     -86.978    -441.105
  H     -664.885     -83.416    -442.338
  P     -664.509     -86.597    -439.598
  C     -664.961     -86.477    -437.049
  O     -663.997     -86.783    -438.079
  O     -663.580     -87.131    -440.627
  O     -665.898     -87.402    -439.605
  H     -665.800     -88.201    -440.163
  H     -664.616     -86.946    -436.128
  H     -665.948     -86.852    -437.316
  H     -664.989     -85.397    -436.921
  H     -663.283     -84.420    -445.775
  H     -663.948     -83.300    -444.610
  H     -664.561     -83.326    -446.247

 3  4  5  6  7  8  9  10  11  12  13  23  27  28  29  30  32 0
 6-311+G(2d,p)
 ****
 34  35 0
 6-311+G(2d,p)
 ****
 1  2  14  15  16  17  18  19  20  21  22  24  25  26 0
 3-21G
 ****
 31  33  36  37  38  39  40  41  42  43  44  45  46 0
 3-21G
 ****


