%nproc=1
%NoSave
%Mem=1900MB
#P OB98/GEN NMR

erre ene a

0 1
  C      497.177     289.159     316.338
  O      498.105     288.240     316.891
  H      497.696     289.777     315.604
  H      496.775     289.805     317.125
  H      496.364     288.621     315.844
  P      497.556     287.304     318.077
  C      498.952     288.259     320.062
  O      498.793     287.228     319.094
  C      499.858     287.772     321.188
  O      499.316     286.570     321.783
  C      501.273     287.403     320.742
  O      502.107     288.537     320.552
  C      501.716     286.559     321.923
  O      502.048     287.410     323.033
  C      500.439     285.739     322.203
  N      500.416     284.457     321.506
  C      501.238     283.444     322.010
  O      501.963     283.656     322.988
  N      501.264     282.223     321.376
  C      500.519     282.020     320.336
  N      500.591     280.802     319.734
  C      499.611     283.043     319.775
  C      499.615     284.226     320.405
  O      497.554     285.834     317.429
  O      496.257     287.714     318.684
  H      502.149     286.832     323.813
  H      497.347     285.165     318.124
  H      499.023     282.843     318.903
  H      498.978     285.029     320.049
  H      500.326     285.553     323.279
  H      502.606     285.957     321.700
  H      501.260     286.775     319.843
  H      499.876     288.548     321.971
  H      501.257     280.133     320.099
  H      497.967     288.517     320.457
  H      500.184     280.613     318.828
  H      499.400     289.143     319.603
  P      502.745     288.761     319.104
  C      505.122     289.371     319.954
  O      503.951     289.807     319.284
  O      501.633     289.615     318.337
  O      503.100     287.499     318.365
  H      501.556     289.334     317.405
  H      505.829     290.173     319.995
  H      505.550     288.545     319.424
  H      504.871     289.065     320.948

 6  7  8  9  10  11  12  13  14  15  16  26  30  31  32  33  35 0
 6-311+G(2d,p)
 ****
 37  38 0
 6-311+G(2d,p)
 ****
 1  2  3  4  5  17  18  19  20  21  22  23  24  25 0
 3-21G
 ****
 27  28  29  34  36  39  40  41  42  43  44  45  46 0
 3-21G
 ****


