%nproc=1
%NoSave
%Mem=1900MB
#P OB98/GEN NMR

erre ene a

0 1
  C      155.111     233.275     234.232
  O      155.234     232.813     232.902
  H      156.108     233.327     234.679
  H      154.502     232.581     234.819
  H      154.666     234.274     234.258
  P      153.930     232.791     231.970
  C      153.692     230.223     232.103
  O      153.091     231.486     232.370
  C      153.266     229.211     233.164
  O      153.762     229.611     234.463
  C      151.757     229.079     233.321
  O      151.196     228.318     232.270
  C      151.665     228.434     234.694
  O      151.892     227.018     234.614
  C      152.816     229.136     235.450
  N      152.350     230.230     236.305
  C      152.141     229.922     237.645
  O      152.291     228.791     238.110
  N      151.710     230.957     238.433
  C      151.375     232.205     238.003
  O      150.908     233.073     238.735
  C      151.596     232.469     236.572
  C      152.068     231.485     235.803
  O      154.179     232.960     230.507
  O      153.032     233.986     232.549
  H      151.271     226.675     233.942
  H      153.077     234.749     231.944
  H      151.536     230.748     239.405
  H      151.354     233.454     236.195
  H      152.231     231.659     234.744
  H      153.354     228.414     236.079
  H      150.688     228.574     235.154
  H      151.296     230.075     233.367
  H      153.718     228.240     232.916
  H      154.783     230.340     232.128
  H      153.391     229.887     231.103
  P      150.187     229.008     231.236
  C      148.444     227.119     231.171
  O      148.712     228.468     231.555
  O      150.595     228.930     229.803
  O      150.123     230.533     231.723
  H      150.438     231.116     231.006
  H      147.437     226.868     231.430
  H      149.118     226.462     231.681
  H      148.577     227.016     230.114

 6  7  8  9  10  11  12  13  14  15  16  26  31  32  33  34  35 0
 6-311+G(2d,p)
 ****
 36  37 0
 6-311+G(2d,p)
 ****
 1  2  3  4  5  17  18  19  20  21  22  23  24  25 0
 3-21G
 ****
 27  28  29  30  38  39  40  41  42  43  44  45 0
 3-21G
 ****


