%nproc=1
%NoSave
%Mem=1900MB
#P OB98/GEN NMR

erre ene a

0 1
  C     -755.492    -222.616     216.110
  O     -754.672    -221.525     216.471
  P     -753.741    -221.591     217.772
  C     -755.509    -220.353     219.268
  O     -754.680    -221.467     219.063
  C     -756.582    -220.712     220.306
  O     -757.273    -221.907     219.919
  C     -755.967    -220.947     221.687
  O     -756.018    -219.754     222.467
  C     -756.817    -222.074     222.243
  O     -758.050    -221.552     222.789
  C     -757.103    -222.903     220.968
  N     -756.086    -223.869     220.526
  C     -755.576    -224.796     221.432
  O     -755.942    -224.890     222.600
  N     -754.576    -225.611     220.949
  C     -754.107    -225.621     219.665
  O     -753.066    -226.178     219.318
  C     -754.868    -224.821     218.705
  C     -755.788    -223.976     219.173
  O     -752.972    -220.192     217.747
  O     -752.808    -222.753     217.834
  H     -758.510    -221.095     222.067
  H     -752.079    -220.304     217.372
  H     -754.110    -226.191     221.637
  H     -754.613    -224.897     217.657
  H     -756.339    -223.343     218.477
  H     -758.053    -223.448     221.064
  H     -756.314    -222.582     223.063
  H     -754.932    -221.305     221.588
  H     -757.318    -219.890     220.360
  H     -755.984    -220.049     218.329
  H     -754.919    -219.500     219.615
  P     -754.959    -219.544     223.646
  C     -756.373    -220.620     225.493
  O     -755.224    -220.747     224.681
  O     -754.920    -218.176     224.246
  O     -753.553    -219.925     222.954
  H     -753.093    -219.110     222.665
  H     -756.533    -221.559     226.017
  H     -757.244    -220.382     224.892
  H     -756.206    -219.830     226.239
  H     -756.032    -222.376     215.218
  H     -756.183    -222.820     216.901
  H     -754.883    -223.478     215.937

 3  4  5  6  7  8  9  10  11  12  13  23  28  29  30  31  32 0
 6-311+G(2d,p)
 ****
 33  34 0
 6-311+G(2d,p)
 ****
 1  2  14  15  16  17  18  19  20  21  22  24  25  26  27 0
 3-21G
 ****
 35  36  37  38  39  40  41  42  43  44  45 0
 3-21G
 ****


