%nproc=1
%NoSave
%Mem=1900MB
#P OB98/GEN NMR

erre ene a

0 1
  C      913.216     117.726    -276.055
  O      913.045     119.106    -275.798
  H      912.565     117.444    -276.888
  H      912.935     117.133    -275.178
  H      914.250     117.512    -276.334
  P      913.835     119.755    -274.563
  C      913.451     119.924    -272.007
  O      912.936     119.492    -273.262
  C      912.716     119.235    -270.856
  O      911.356     119.715    -270.776
  C      912.620     117.724    -270.991
  O      913.857     117.114    -270.692
  C      911.490     117.425    -270.014
  O      911.970     117.445    -268.660
  C      910.544     118.624    -270.277
  N      909.463     118.313    -271.208
  C      908.295     117.794    -270.638
  O      908.224     117.601    -269.430
  N      907.244     117.492    -271.475
  C      907.331     117.725    -272.743
  N      906.254     117.400    -273.515
  C      908.529     118.315    -273.381
  C      909.548     118.566    -272.562
  O      914.277     121.177    -274.730
  O      915.084     118.771    -274.342
  H      912.690     116.786    -268.617
  H      915.864     119.100    -274.825
  H      908.555     118.497    -274.438
  H      910.470     119.002    -272.940
  H      910.095     118.969    -269.332
  H      911.038     116.453    -270.186
  H      912.280     117.453    -272.003
  H      913.218     119.516    -269.920
  H      905.445     117.019    -273.027
  H      913.304     121.007    -271.958
  H      906.144     117.689    -274.478
  H      914.525     119.719    -271.948
  P      914.440     115.909    -271.577
  C      913.523     113.589    -272.238
  O      913.468     114.659    -271.291
  O      915.893     115.632    -271.397
  O      914.041     116.313    -273.075
  H      914.650     117.011    -273.416
  H      912.839     112.819    -271.947
  H      914.516     113.191    -272.269
  H      913.256     113.956    -273.207

 6  7  8  9  10  11  12  13  14  15  16  26  30  31  32  33  35 0
 6-311+G(2d,p)
 ****
 37  38 0
 6-311+G(2d,p)
 ****
 1  2  3  4  5  17  18  19  20  21  22  23  24  25 0
 3-21G
 ****
 27  28  29  34  36  39  40  41  42  43  44  45  46 0
 3-21G
 ****


