%nproc=1
%NoSave
%Mem=1900MB
#P OB98/GEN NMR

erre ene a

0 1
  C     -111.356     -69.701    -160.357
  O     -110.362     -68.706    -160.076
  P     -110.595     -67.226    -160.644
  C     -112.205     -66.435    -158.758
  O     -110.960     -66.259    -159.418
  C     -113.040     -65.154    -158.837
  O     -114.378     -65.357    -158.339
  C     -112.475     -64.004    -158.018
  O     -111.439     -63.326    -158.715
  C     -113.696     -63.107    -157.886
  O     -113.874     -62.344    -159.096
  C     -114.831     -64.125    -157.730
  N     -116.681     -62.085    -153.412
  C     -116.402     -61.543    -154.618
  N     -115.894     -62.146    -155.713
  C     -115.686     -63.452    -155.481
  C     -115.921     -64.143    -154.305
  C     -116.443     -63.405    -153.231
  N     -116.727     -63.962    -152.006
  N     -115.574     -65.472    -154.440
  C     -115.152     -65.583    -155.683
  N     -115.192     -64.388    -156.349
  O     -111.983     -67.356    -161.432
  O     -109.502     -66.741    -161.537
  H     -114.481     -61.610    -158.883
  H     -111.975     -66.773    -162.214
  H     -116.615     -60.482    -154.718
  H     -114.812     -66.501    -156.143
  H     -115.744     -63.814    -158.251
  H     -113.603     -62.387    -157.069
  H     -112.152     -64.348    -157.027
  H     -113.106     -64.857    -159.892
  H     -112.039     -66.712    -157.712
  H     -117.126     -63.375    -151.292
  H     -116.573     -64.952    -151.873
  H     -112.734     -67.276    -159.217
  P     -110.100     -62.994    -157.897
  C     -108.766     -65.211    -157.665
  O     -109.004     -64.039    -158.418
  O     -110.448     -63.499    -156.417
  O     -109.704     -61.557    -157.921
  H     -109.966     -62.961    -155.760
  H     -108.240     -65.932    -158.295
  H     -109.703     -65.660    -157.327
  H     -108.140     -64.973    -156.800
  H     -111.064     -70.631    -159.916
  H     -111.450     -69.822    -161.416
  H     -112.295     -69.392    -159.949

 3  4  5  6  7  8  9  10  11  12  22  25  29  30  31  32 0
 6-311+G(2d,p)
 ****
 33  36  37 0
 6-311+G(2d,p)
 ****
 1  2  13  14  15  16  17  18  19  20  21  23  24  26 0
 3-21G
 ****
 27  28  34  35  38  39  40  41  42  43  44  45  46  47  48 0
 3-21G
 ****


