%nproc=1
%NoSave
%Mem=1900MB
#P OB98/GEN NMR

erre ene a

0 1
  C      362.155    -555.820      58.502
  O      361.677    -557.121      58.177
  P      361.789    -557.577      56.641
  C      360.955    -559.828      57.635
  O      360.998    -558.963      56.507
  C      359.954    -560.960      57.397
  O      360.314    -561.702      56.207
  C      359.873    -561.992      58.515
  O      359.152    -561.498      59.619
  C      359.199    -563.146      57.780
  O      357.786    -562.907      57.676
  C      359.843    -563.064      56.383
  N      362.553    -565.871      53.058
  C      361.465    -565.080      52.899
  N      360.787    -564.383      53.834
  C      361.346    -564.553      55.043
  C      362.436    -565.339      55.366
  C      363.055    -566.015      54.308
  N      364.164    -566.821      54.470
  N      362.712    -565.284      56.718
  C      361.795    -564.471      57.204
  N      360.960    -563.981      56.230
  O      363.322    -558.008      56.499
  O      361.413    -556.527      55.644
  H      357.663    -561.956      57.467
  H      363.667    -557.802      55.604
  H      361.093    -565.001      51.886
  H      361.711    -564.178      58.242
  H      359.136    -563.276      55.575
  H      359.343    -564.112      58.275
  H      360.877    -562.293      58.825
  H      358.968    -560.508      57.219
  H      360.640    -559.270      58.521
  H      364.461    -567.379      53.694
  H      364.460    -567.044      55.417
  H      361.957    -560.233      57.817
  P      359.932    -561.388      61.025
  C      358.529    -559.229      61.140
  O      359.065    -560.333      61.862
  O      361.224    -560.538      60.609
  O      360.200    -562.688      61.690
  H      360.987    -559.745      60.094
  H      357.932    -558.625      61.805
  H      357.908    -559.586      60.312
  H      359.358    -558.618      60.736
  H      362.023    -555.643      59.549
  H      361.607    -555.089      57.945
  H      363.194    -555.750      58.257

 3  4  5  6  7  8  9  10  11  12  22  25  29  30  31  32 0
 6-311+G(2d,p)
 ****
 33  36  37 0
 6-311+G(2d,p)
 ****
 1  2  13  14  15  16  17  18  19  20  21  23  24  26 0
 3-21G
 ****
 27  28  34  35  38  39  40  41  42  43  44  45  46  47  48 0
 3-21G
 ****


