%nproc=1
%NoSave
%Mem=1900MB
#P OB98/GEN NMR

erre ene a

0 1
  C       56.432     598.902     -59.522
  O       56.377     600.293     -59.266
  P       57.520     601.218     -59.927
  C       58.316     602.004     -57.579
  O       57.832     602.377     -58.865
  C       58.491     603.244     -56.704
  O       59.518     604.104     -57.230
  C       57.248     604.118     -56.607
  O       56.311     603.622     -55.665
  C       57.850     605.426     -56.118
  O       58.081     605.366     -54.700
  C       59.186     605.468     -56.879
  N       57.721     609.919     -58.784
  C       57.802     609.511     -57.473
  N       57.387     610.387     -56.538
  N       58.266     608.343     -57.101
  C       58.646     607.562     -58.148
  C       58.607     607.860     -59.496
  C       58.088     609.154     -59.888
  O       57.937     609.550     -61.030
  N       59.077     606.819     -60.253
  C       59.401     605.894     -59.366
  N       59.116     606.278     -58.081
  O       56.736     601.988     -61.092
  O       58.705     600.473     -60.445
  H       58.401     606.256     -54.434
  H       57.373     602.370     -61.729
  H       57.356     610.832     -59.018
  H       59.827     604.927     -59.614
  H       59.995     605.856     -56.257
  H       57.196     606.286     -56.297
  H       56.963     611.281     -56.760
  H       56.786     604.269     -57.589
  H       57.379     610.092     -55.567
  H       58.806     602.910     -55.701
  H       59.280     601.492     -57.690
  H       57.612     601.307     -57.118
  P       54.936     603.038     -56.248
  C       53.512     603.779     -54.203
  O       54.033     602.702     -54.969
  O       55.365     601.593     -56.800
  O       54.304     603.881     -57.302
  H       54.770     601.314     -57.520
  H       52.721     603.387     -53.549
  H       53.089     604.554     -54.849
  H       54.305     604.212     -53.586
  H       55.619     598.415     -59.025
  H       57.359     598.509     -59.159
  H       56.360     598.730     -60.576

 3  4  5  6  7  8  9  10  11  12  23  26  30  31 0
 6-311+G(2d,p)
 ****
 33  35  36  37  38 0
 6-311+G(2d,p)
 ****
 1  2  13  14  15  16  17  18  19  20  21  22  24  25 0
 3-21G
 ****
 27  28  29  32  34  39  40  41  42  43  44  45  46  47  48  49 0
 3-21G
 ****


