%nproc=1
%NoSave
%Mem=1900MB
#P OB98/GEN NMR

erre ene a

0 1
  C       -8.576     434.767    -191.190
  O       -8.668     435.864    -192.077
  H       -8.346     433.867    -191.768
  H       -9.525     434.611    -190.668
  H       -7.774     434.932    -190.464
  P       -9.076     437.294    -191.484
  C       -6.667     438.221    -191.284
  O       -7.838     437.788    -190.596
  C       -5.588     438.644    -190.289
  O       -6.045     439.755    -189.494
  C       -5.191     437.554    -189.298
  O       -4.374     436.585    -189.922
  C       -4.511     438.392    -188.227
  O       -3.178     438.749    -188.622
  C       -5.426     439.641    -188.191
  N       -6.436     439.599    -187.138
  C       -6.234     440.467    -186.058
  O       -5.245     441.201    -186.025
  N       -7.152     440.462    -185.037
  C       -8.198     439.699    -185.102
  N       -9.074     439.748    -184.068
  C       -8.462     438.796    -186.238
  C       -7.544     438.788    -187.205
  O      -10.403     437.368    -190.791
  O       -9.019     438.266    -192.753
  H       -2.711     437.905    -188.783
  H       -9.903     438.349    -193.160
  H       -9.351     438.186    -186.260
  H       -7.662     438.152    -188.076
  H       -4.826     440.550    -188.047
  H       -4.431     437.861    -187.277
  H       -6.089     437.100    -188.862
  H       -4.717     438.988    -190.866
  H       -8.855     440.398    -183.315
  H       -6.960     439.072    -191.908
  H       -9.988     439.325    -184.084
  H       -6.288     437.428    -191.939
  P       -4.062     435.178    -189.219
  C       -5.782     433.779    -190.521
  O       -5.439     434.350    -189.268
  O       -3.431     435.267    -187.872
  O       -3.162     434.411    -190.298
  H       -2.233     434.759    -190.281
  H       -6.711     433.256    -190.432
  H       -5.016     433.096    -190.823
  H       -5.878     434.554    -191.252

 6  7  8  9  10  11  12  13  14  15  16  26  30  31  32  33  35 0
 6-311+G(2d,p)
 ****
 37  38 0
 6-311+G(2d,p)
 ****
 1  2  3  4  5  17  18  19  20  21  22  23  24  25 0
 3-21G
 ****
 27  28  29  34  36  39  40  41  42  43  44  45  46 0
 3-21G
 ****


