%nproc=1
%NoSave
%Mem=1900MB
#P OB98/GEN NMR

erre ene a

0 1
  C       -7.174     197.269     157.386
  O       -8.165     197.704     156.449
  P       -8.256     199.259     156.073
  C       -6.798     199.520     153.963
  O       -8.115     199.421     154.482
  C       -6.820     199.726     152.439
  O       -7.636     198.702     151.815
  C       -7.383     201.096     152.030
  O       -6.537     201.803     151.120
  C       -8.777     200.767     151.516
  O       -9.286     201.743     150.620
  C       -8.609     199.346     150.968
  N       -9.881     198.615     150.929
  C      -10.821     199.049     149.999
  O      -10.658     200.041     149.287
  N      -11.993     198.345     149.961
  C      -12.338     197.321     150.790
  O      -13.422     196.750     150.743
  C      -11.332     196.948     151.796
  C      -10.165     197.602     151.816
  O       -7.397     200.174     156.883
  O       -9.812     199.591     156.312
  H       -8.716     201.753     149.822
  H       -9.873     200.483     156.707
  H      -12.677     198.634     149.280
  H      -11.580     196.153     152.487
  H       -9.414     197.356     152.556
  H       -8.216     199.364     149.947
  H       -9.462     200.731     152.375
  H       -7.464     201.771     152.890
  H       -5.790     199.614     152.080
  H       -6.246     198.605     154.184
  H       -6.265     200.328     154.476
  P       -5.904     203.244     151.407
  C       -4.256     203.244     153.407
  O       -4.439     203.037     152.022
  O       -6.772     204.199     152.160
  O       -5.607     203.809     149.933
  H       -5.833     204.759     149.903
  H       -3.194     203.428     153.597
  H       -4.557     202.346     153.955
  H       -4.835     204.101     153.770
  H       -7.252     196.210     157.522
  H       -7.329     197.761     158.323
  H       -6.200     197.510     157.013

 3  4  5  6  7  8  9  10  11  12  13  23  28  29  30  31  32 0
 6-311+G(2d,p)
 ****
 33  34 0
 6-311+G(2d,p)
 ****
 1  2  14  15  16  17  18  19  20  21  22  24  25  26  27 0
 3-21G
 ****
 35  36  37  38  39  40  41  42  43  44  45 0
 3-21G
 ****


