%nproc=1
%NoSave
%Mem=1900MB
#P OB98/GEN NMR

erre ene a

0 1
  C       21.113    -135.682     -48.896
  O       20.492    -135.345     -50.121
  H       22.197    -135.660     -49.036
  H       20.823    -136.689     -48.580
  H       20.845    -134.956     -48.122
  P       18.894    -135.383     -50.204
  C       18.846    -137.914     -50.750
  O       18.459    -136.884     -49.845
  C       17.670    -138.849     -51.033
  O       17.378    -139.652     -49.873
  C       16.372    -138.129     -51.378
  O       16.414    -137.624     -52.697
  C       15.363    -139.243     -51.137
  O       15.343    -140.166     -52.239
  C       15.956    -139.916     -49.873
  N       15.344    -139.456     -48.630
  C       14.145    -140.082     -48.265
  O       13.655    -140.953     -48.984
  N       13.526    -139.685     -47.104
  C       14.074    -138.782     -46.351
  N       13.414    -138.437     -45.211
  C       15.354    -138.124     -46.681
  C       15.921    -138.497     -47.828
  O       18.283    -134.848     -51.464
  O       18.421    -134.553     -48.920
  H       16.267    -140.227     -52.555
  H       18.263    -133.617     -49.156
  H       15.779    -137.383     -46.018
  H       16.864    -138.060     -48.144
  H       15.835    -141.007     -49.927
  H       14.349    -138.864     -51.017
  H       16.178    -137.327     -50.655
  H       17.969    -139.531     -51.840
  H       12.549    -138.933     -45.017
  H       19.663    -138.470     -50.276
  H       13.820    -137.873     -44.479
  H       19.219    -137.485     -51.688
  P       15.653    -136.272     -53.104
  C       13.824    -137.763     -54.130
  O       14.106    -136.675     -53.263
  O       16.233    -135.541     -54.268
  O       15.651    -135.417     -51.751
  H       16.537    -135.008     -51.599
  H       12.768    -137.936     -54.154
  H       14.321    -138.641     -53.774
  H       14.170    -137.532     -55.116

 6  7  8  9  10  11  12  13  14  15  16  26  30  31  32  33  35 0
 6-311+G(2d,p)
 ****
 37  38 0
 6-311+G(2d,p)
 ****
 1  2  3  4  5  17  18  19  20  21  22  23  24  25 0
 3-21G
 ****
 27  28  29  34  36  39  40  41  42  43  44  45  46 0
 3-21G
 ****


