%nproc=1
%NoSave
%Mem=1900MB
#P OB98/GEN NMR

erre ene a

0 1
  C      256.573     610.716     456.464
  O      257.304     611.381     455.414
  P      258.791     611.893     455.708
  C      258.482     614.225     456.825
  O      258.819     612.856     456.994
  C      259.048     615.080     457.971
  O      260.508     615.100     457.918
  C      258.590     616.551     457.955
  O      258.510     616.992     459.318
  C      259.747     617.251     457.255
  O      259.793     618.644     457.502
  C      260.937     616.475     457.847
  N      262.181     616.605     457.083
  C      262.741     617.864     456.979
  O      262.241     618.896     457.416
  N      263.937     617.925     456.291
  C      264.573     616.882     455.686
  O      265.615     617.006     455.055
  C      263.911     615.574     455.809
  C      262.766     615.503     456.494
  O      259.038     612.918     454.499
  O      259.852     610.828     455.701
  H      258.975     619.032     457.127
  H      259.914     612.768     454.106
  H      264.367     618.826     456.216
  H      264.390     614.711     455.350
  H      262.271     614.538     456.618
  H      261.111     616.797     458.877
  H      259.663     617.097     456.177
  H      257.627     616.697     457.445
  H      258.774     614.597     458.920
  H      257.395     614.332     456.803
  H      258.872     614.583     455.867
  P      257.056     617.122     459.998
  C      256.056     619.531     459.736
  O      256.255     618.246     459.177
  O      257.442     617.867     461.365
  O      256.341     615.819     460.208
  H      258.062     618.606     461.230
  H      256.943     619.874     460.258
  H      255.211     619.483     460.433
  H      255.808     620.227     458.935
  H      255.604     610.440     456.104
  H      256.469     611.376     457.300
  H      257.104     609.838     456.767

 3  4  5  6  7  8  9  10  11  12  13  23  28  29  30  31  32 0
 6-311+G(2d,p)
 ****
 33  34 0
 6-311+G(2d,p)
 ****
 1  2  14  15  16  17  18  19  20  21  22  24  25  26 0
 3-21G
 ****
 27  35  36  37  38  39  40  41  42  43  44  45 0
 3-21G
 ****


