%nproc=1
%NoSave
%Mem=1900MB
#P OB98/GEN NMR

erre ene a

0 1
  C     -127.684     446.327    -426.117
  O     -128.601     445.600    -425.299
  P     -130.101     446.154    -425.136
  C     -131.276     443.938    -424.567
  O     -130.886     445.218    -424.090
  C     -130.218     442.861    -424.286
  O     -129.997     442.710    -422.860
  C     -130.570     441.468    -424.837
  O     -129.346     440.867    -425.266
  C     -131.123     440.765    -423.615
  O     -131.135     439.352    -423.761
  C     -130.188     441.318    -422.534
  N     -130.720     441.146    -421.193
  C     -129.852     440.642    -420.222
  O     -128.721     440.271    -420.540
  N     -130.297     440.547    -418.925
  C     -131.544     440.788    -418.660
  N     -131.943     440.704    -417.362
  C     -132.534     441.150    -419.691
  C     -132.052     441.332    -420.918
  O     -130.831     446.417    -426.412
  O     -129.890     447.509    -424.304
  H     -130.218     439.018    -423.691
  H     -130.553     448.167    -424.596
  H     -133.581     441.255    -419.438
  H     -132.694     441.601    -421.744
  H     -129.204     440.835    -422.585
  H     -132.151     441.095    -423.436
  H     -131.267     441.501    -425.683
  H     -129.270     443.198    -424.727
  H     -131.257     440.433    -416.667
  H     -131.449     443.995    -425.646
  H     -132.885     440.926    -417.064
  H     -132.239     443.670    -424.118
  P     -128.865     441.063    -426.787
  C     -126.373     441.398    -426.144
  O     -127.320     440.660    -426.875
  O     -128.796     442.669    -426.895
  O     -129.781     440.523    -427.837
  H     -128.905     442.925    -427.830
  H     -125.441     440.828    -426.095
  H     -126.715     441.587    -425.120
  H     -126.175     442.349    -426.649
  H     -126.737     445.829    -426.120
  H     -127.566     447.316    -425.727
  H     -128.062     446.380    -427.116

 3  4  5  6  7  8  9  10  11  12  13  23  27  28  29  30  32 0
 6-311+G(2d,p)
 ****
 34  35 0
 6-311+G(2d,p)
 ****
 1  2  14  15  16  17  18  19  20  21  22  24  25  26 0
 3-21G
 ****
 31  33  36  37  38  39  40  41  42  43  44  45  46 0
 3-21G
 ****


