%nproc=1
%NoSave
%Mem=1900MB
#P OB98/GEN NMR

erre ene a

0 1
  C       -9.481      -8.746      -9.031
  O       -9.644     -10.145      -9.172
  P       -9.264     -11.069      -7.919
  C      -11.603     -12.210      -8.075
  O      -10.638     -11.562      -7.258
  C      -12.977     -11.574      -7.853
  O      -13.072     -10.321      -8.566
  C      -14.132     -12.424      -8.364
  O      -14.443     -13.472      -7.461
  C      -15.240     -11.389      -8.498
  O      -15.890     -11.163      -7.237
  C      -14.454     -10.137      -8.938
  N      -14.600      -9.856     -10.362
  C      -15.804      -9.275     -10.748
  O      -16.711      -9.027      -9.954
  N      -15.947      -9.025     -12.085
  C      -15.048      -9.342     -13.061
  O      -15.258      -9.143     -14.252
  C      -13.806      -9.982     -12.598
  C      -13.644     -10.212     -11.293
  O       -8.674     -10.038      -6.847
  O       -8.299     -12.164      -8.226
  H      -16.304     -10.280      -7.292
  H       -7.951     -10.460      -6.344
  H      -16.801      -8.581     -12.381
  H      -13.070     -10.248     -13.346
  H      -12.743     -10.694     -10.934
  H      -14.801      -9.259      -8.379
  H      -16.014     -11.702      -9.204
  H      -13.893     -12.823      -9.357
  H      -13.094     -11.367      -6.782
  H      -11.642     -13.272      -7.816
  H      -11.303     -12.121      -9.123
  P      -14.492     -14.960      -8.063
  C      -13.827     -16.342      -5.948
  O      -13.440     -15.796      -7.190
  O      -13.776     -14.733      -9.477
  O      -15.876     -15.511      -8.143
  H      -13.097     -14.040      -9.437
  H      -14.867     -16.678      -5.965
  H      -13.700     -15.590      -5.166
  H      -13.184     -17.197      -5.725
  H       -9.771      -8.260      -9.939
  H       -8.455      -8.526      -8.820
  H      -10.093      -8.395      -8.227

 3  4  5  6  7  8  9  10  11  12  13  23  28  29  30  31  32 0
 6-311+G(2d,p)
 ****
 33  34 0
 6-311+G(2d,p)
 ****
 1  2  14  15  16  17  18  19  20  21  22  24  25  26 0
 3-21G
 ****
 27  35  36  37  38  39  40  41  42  43  44  45 0
 3-21G
 ****


