%nproc=1
%NoSave
%Mem=1900MB
#P OB98/GEN NMR

erre ene a

0 1
  C     -300.160     685.530    -328.614
  O     -300.387     686.257    -329.804
  H     -299.881     686.248    -327.830
  H     -299.334     684.829    -328.745
  H     -301.060     685.004    -328.300
  P     -300.913     685.450    -331.101
  C     -303.060     686.814    -331.501
  O     -302.515     685.568    -331.094
  C     -303.547     687.602    -330.284
  O     -302.405     687.925    -329.440
  C     -304.229     688.928    -330.659
  O     -305.322     689.151    -329.758
  C     -303.146     689.975    -330.399
  O     -303.693     691.256    -330.096
  C     -302.375     689.353    -329.232
  N     -299.379     692.927    -327.297
  C     -300.727     692.672    -327.097
  N     -301.382     693.525    -326.265
  N     -301.380     691.686    -327.657
  C     -300.601     690.906    -328.446
  C     -299.265     691.049    -328.729
  C     -298.558     692.163    -328.119
  O     -297.376     692.436    -328.270
  N     -298.840     690.082    -329.612
  C     -299.914     689.352    -329.850
  N     -301.005     689.823    -329.171
  O     -300.392     684.059    -331.238
  O     -300.480     686.372    -332.325
  H     -302.963     691.787    -329.699
  H     -299.667     686.041    -332.754
  H     -298.936     693.700    -326.864
  H     -299.949     688.500    -330.514
  H     -302.836     689.567    -328.257
  H     -302.512     690.066    -331.287
  H     -300.941     694.290    -325.788
  H     -304.594     688.955    -331.672
  H     -302.362     693.349    -326.083
  H     -304.217     686.969    -329.701
  H     -303.896     686.620    -332.181
  H     -302.301     687.386    -332.034
  P     -306.738     688.457    -330.077
  C     -307.695     687.184    -328.047
  O     -306.859     687.119    -329.201
  O     -307.063     688.301    -331.529
  O     -307.787     689.445    -329.348
  H     -308.612     689.422    -329.846
  H     -307.693     686.236    -327.551
  H     -308.693     687.429    -328.343
  H     -307.326     687.936    -327.381

 6  7  8  9  10  11  12  13  14  15  26  29  33  34 0
 6-311+G(2d,p)
 ****
 36  38  39  40  41 0
 6-311+G(2d,p)
 ****
 1  2  3  4  5  16  17  18  19  20  21  22  23  24  25 0
 3-21G
 ****
 27  28  30  31  32  35  37  42  43  44  45  46  47 0
 3-21G
 ****
 48  49 0
 3-21G
 ****


