%nproc=1
%NoSave
%Mem=1900MB
#P OB98/GEN NMR

erre ene a

0 1
  C     -897.096     463.168    1313.980
  O     -897.922     463.808    1313.016
  H     -897.479     462.155    1314.165
  H     -897.112     463.711    1314.934
  H     -896.070     463.100    1313.612
  P     -897.663     465.367    1312.709
  C     -897.507     466.773    1310.554
  O     -897.691     465.477    1311.118
  C     -897.013     466.681    1309.107
  O     -895.761     465.949    1309.074
  C     -897.979     465.897    1308.207
  O     -899.088     466.705    1307.851
  C     -897.047     465.528    1307.046
  O     -896.866     466.624    1306.149
  C     -895.723     465.218    1307.817
  N     -895.546     463.779    1308.061
  C     -894.541     463.453    1308.978
  O     -893.874     464.326    1309.527
  N     -894.320     462.113    1309.232
  C     -895.029     461.209    1308.640
  N     -894.749     459.905    1308.951
  C     -896.102     461.514    1307.669
  C     -896.305     462.812    1307.422
  O     -896.467     465.982    1313.347
  O     -899.041     466.078    1313.152
  H     -897.664     466.640    1305.591
  H     -898.986     466.336    1314.097
  H     -896.678     460.724    1307.198
  H     -897.071     463.125    1306.740
  H     -894.853     465.583    1307.255
  H     -897.437     464.671    1306.492
  H     -898.305     464.975    1308.689
  H     -896.839     467.692    1308.720
  H     -894.007     459.721    1309.591
  H     -896.775     467.306    1311.170
  H     -895.287     459.126    1308.609
  H     -898.448     467.360    1310.572
  P     -900.225     466.114    1306.860
  C     -902.771     466.466    1306.704
  O     -901.629     466.523    1307.534
  O     -900.090     464.683    1306.514
  O     -900.128     467.096    1305.596
  H     -899.331     466.906    1305.051
  H     -903.634     466.759    1307.264
  H     -902.901     465.467    1306.345
  H     -902.642     467.129    1305.874

 6  7  8  9  10  11  12  13  14  15  16  26  30  31  32  33  35 0
 6-311+G(2d,p)
 ****
 37  38 0
 6-311+G(2d,p)
 ****
 1  2  3  4  5  17  18  19  20  21  22  23  24  25 0
 3-21G
 ****
 27  28  29  34  36  39  40  41  42  43  44  45  46 0
 3-21G
 ****


