%nproc=1
%NoSave
%Mem=1900MB
#P OB98/GEN NMR

erre ene a

0 1
  C      -18.260     122.393     -46.125
  O      -18.187     121.863     -44.818
  H      -17.828     123.397     -46.122
  H      -19.298     122.461     -46.460
  H      -17.686     121.769     -46.817
  P      -18.898     120.461     -44.511
  C      -21.078     121.238     -43.381
  O      -20.479     120.731     -44.566
  C      -22.603     121.227     -43.497
  O      -23.037     119.862     -43.744
  C      -23.317     121.733     -42.238
  O      -24.471     122.472     -42.643
  C      -23.723     120.448     -41.548
  O      -24.820     120.650     -40.679
  C      -23.996     119.513     -42.730
  N      -23.885     118.110     -42.331
  C      -24.840     117.234     -42.858
  O      -25.707     117.651     -43.628
  N      -24.835     115.925     -42.453
  C      -23.987     115.532     -41.556
  N      -24.062     114.230     -41.170
  C      -22.979     116.426     -40.951
  C      -22.983     117.688     -41.382
  O      -18.430     119.739     -43.292
  O      -18.629     119.605     -45.838
  H      -25.175     119.780     -40.395
  H      -17.801     119.098     -45.747
  H      -22.298     116.052     -40.203
  H      -22.287     118.418     -40.986
  H      -24.999     119.683     -43.140
  H      -22.884     120.069     -40.951
  H      -22.678     122.354     -41.604
  H      -22.890     121.815     -44.376
  H      -24.785     113.661     -41.593
  H      -20.728     122.267     -43.243
  H      -23.485     113.821     -40.451
  H      -20.762     120.641     -42.521
  P      -24.677     123.991     -42.167
  C      -26.812     124.209     -40.773
  O      -25.405     123.996     -40.734
  O      -25.304     124.885     -43.186
  O      -23.191     124.488     -41.825
  H      -23.127     125.448     -41.989
  H      -27.203     124.195     -39.777
  H      -27.274     123.434     -41.348
  H      -27.017     125.158     -41.223

 6  7  8  9  10  11  12  13  14  15  16  26  30  31  32  33  35 0
 6-311+G(2d,p)
 ****
 37  38 0
 6-311+G(2d,p)
 ****
 1  2  3  4  5  17  18  19  20  21  22  23  24  25 0
 3-21G
 ****
 27  28  29  34  36  39  40  41  42  43  44  45  46 0
 3-21G
 ****


