%nproc=1
%NoSave
%Mem=1900MB
#P OB98/GEN NMR

erre ene a

0 1
  C     -217.791     452.033     193.743
  O     -218.474     453.206     193.353
  P     -217.909     454.092     192.149
  C     -219.876     453.285     190.681
  O     -219.141     454.420     191.165
  C     -221.367     453.586     190.661
  O     -221.848     453.812     192.006
  C     -221.742     454.830     189.882
  O     -221.716     454.582     188.482
  C     -223.132     455.128     190.440
  O     -224.124     454.316     189.795
  C     -222.974     454.726     191.914
  N     -224.212     456.757     196.431
  C     -224.697     455.686     195.752
  N     -224.345     455.222     194.531
  C     -223.388     456.006     193.998
  C     -222.824     457.168     194.548
  C     -223.258     457.519     195.844
  N     -222.726     458.564     196.565
  N     -221.912     457.713     193.671
  C     -221.924     456.930     192.614
  N     -222.765     455.857     192.788
  O     -216.682     453.560     191.472
  O     -217.614     455.515     192.823
  H     -225.004     454.698     190.019
  H     -216.669     455.727     192.731
  H     -225.464     455.116     196.268
  H     -221.353     457.089     191.700
  H     -223.845     454.187     192.287
  H     -223.429     456.173     190.303
  H     -221.074     455.661     190.139
  H     -221.895     452.706     190.267
  H     -219.666     452.426     191.329
  H     -222.999     458.648     197.527
  H     -221.817     458.948     196.275
  H     -219.523     453.046     189.663
  P     -220.856     455.539     187.526
  C     -218.609     454.319     187.377
  O     -219.839     454.579     186.735
  O     -220.252     456.725     188.169
  O     -221.907     455.953     186.375
  H     -221.685     456.849     186.052
  H     -217.921     455.169     187.259
  H     -218.134     453.436     186.897
  H     -218.759     454.094     188.439
  H     -218.310     451.573     194.558
  H     -216.797     452.284     194.049
  H     -217.749     451.354     192.917

 3  4  5  6  7  8  9  10  11  12  22  25  29  30  31  32 0
 6-311+G(2d,p)
 ****
 33  36  37 0
 6-311+G(2d,p)
 ****
 1  2  13  14  15  16  17  18  19  20  21  23  24  26 0
 3-21G
 ****
 27  28  34  35  38  39  40  41  42  43  44  45  46  47  48 0
 3-21G
 ****


