%nproc=1
%NoSave
%Mem=1900MB
#P OB98/GEN NMR

erre ene a

0 1
  C       58.590    -148.907     214.016
  O       59.132    -148.139     215.081
  P       60.720    -148.220     215.319
  C       60.711    -145.684     215.868
  O       61.071    -146.994     216.292
  C       60.905    -144.684     217.000
  O       59.871    -144.859     217.988
  C       62.218    -144.829     217.756
  O       63.297    -144.210     217.071
  C       61.896    -144.090     219.049
  O       62.052    -142.674     218.849
  C       60.412    -144.441     219.267
  N       59.022    -145.548     224.008
  C       59.098    -144.326     223.371
  N       58.725    -143.247     224.093
  N       59.506    -144.173     222.139
  C       59.807    -145.342     221.526
  C       59.774    -146.615     222.051
  C       59.369    -146.764     223.433
  O       59.345    -147.814     224.070
  N       60.136    -147.550     221.117
  C       60.354    -146.853     220.020
  N       60.197    -145.504     220.226
  O       61.319    -147.753     213.908
  O       61.232    -149.559     215.726
  H       63.008    -142.483     218.895
  H       62.214    -148.128     213.790
  H       58.685    -145.609     224.952
  H       60.625    -147.278     219.064
  H       59.840    -143.562     219.585
  H       62.553    -144.373     219.876
  H       58.282    -143.313     224.995
  H       62.432    -145.880     217.977
  H       58.740    -142.346     223.631
  H       60.809    -143.672     216.583
  H       59.659    -145.680     215.565
  H       61.325    -145.411     215.004
  P       64.652    -145.064     216.945
  C       65.566    -144.217     214.665
  O       65.643    -144.152     216.077
  O       64.247    -146.250     215.950
  O       65.181    -145.569     218.242
  H       64.813    -147.029     216.107
  H       64.536    -144.347     214.325
  H       66.177    -145.051     214.307
  H       65.957    -143.286     214.248
  H       57.531    -148.760     213.973
  H       58.799    -149.943     214.181
  H       59.031    -148.597     213.092

 3  4  5  6  7  8  9  10  11  12  23  26  30  31  33  0
 6-311+G(2d,p)
 ****
 35  36  37  38 0
 6-311+G(2d,p)
 ****
 1  2  13  14  15  16  17  18  19  20  21  22  24  25  27  28  29 0
 3-21G
 ****
 32  34  39  40  41  42  43  44  45  46  47  48  49 0
 3-21G
 ****


