%nproc=1
%NoSave
%Mem=1900MB
#P OB98/GEN NMR

erre ene a

0 1
  C      439.278     128.826      11.342
  O      438.223     129.071      12.251
  H      440.021     128.188      11.829
  H      439.754     129.773      11.074
  H      438.908     128.320      10.444
  P      436.886     129.724      11.661
  C      437.195     132.217      12.285
  O      436.536     130.999      12.577
  C      437.581     132.940      13.580
  O      436.362     133.377      14.248
  C      438.365     132.067      14.574
  O      439.358     132.866      15.207
  C      437.311     131.649      15.587
  O      437.880     131.332      16.861
  C      436.409     132.870      15.598
  N      433.823     130.564      19.261
  C      435.181     130.792      19.133
  N      435.968     130.340      20.136
  N      435.721     131.429      18.118
  C      434.800     131.859      17.219
  C      433.437     131.687      17.222
  C      432.861     130.961      18.342
  O      431.665     130.705      18.491
  N      432.861     132.243      16.114
  C      433.876     132.751      15.432
  N      435.076     132.547      16.070
  O      435.759     128.660      12.055
  O      436.898     129.987      10.191
  H      437.181     130.887      17.394
  H      435.374     128.272      11.246
  H      433.464     130.063      20.056
  H      433.797     133.266      14.483
  H      436.790     133.675      16.252
  H      436.774     130.770      15.222
  H      435.621     129.886      20.967
  H      438.842     131.205      14.095
  H      436.962     130.526      20.080
  H      438.138     133.846      13.322
  H      436.534     132.854      11.697
  H      438.102     132.010      11.698
  P      440.861     132.746      14.644
  C      441.926     131.769      16.794
  O      441.880     132.858      15.891
  O      441.070     134.126      13.857
  O      441.077     131.568      13.751
  H      441.076     133.963      12.898
  H      442.638     131.975      17.566
  H      442.216     130.883      16.269
  H      440.959     131.626      17.229

 6  7  8  9  10  11  12  13  14  15  26  29  33  34 0
 6-311+G(2d,p)
 ****
 36  38  39  40  41 0
 6-311+G(2d,p)
 ****
 1  2  3  4  5  16  17  18  19  20  21  22  23  24  25 0
 3-21G
 ****
 27  28  30  31  32  35  37  42  43  44  45  46  47 0
 3-21G
 ****
 48  49 0
 3-21G
 ****


