%nproc=1
%NoSave
%Mem=1900MB
#P OB98/GEN NMR

erre ene a

0 1
  C     -309.798    -314.191    -400.014
  O     -309.224    -314.167    -398.707
  P     -307.885    -313.317    -398.475
  C     -308.498    -312.434    -396.131
  O     -307.601    -313.230    -396.897
  C     -307.803    -311.904    -394.866
  O     -307.446    -313.028    -394.019
  C     -306.494    -311.143    -395.118
  O     -306.562    -309.736    -395.343
  C     -305.777    -311.334    -393.782
  O     -306.242    -310.354    -392.832
  C     -306.210    -312.725    -393.335
  N     -301.989    -315.051    -391.610
  C     -302.753    -314.067    -391.093
  N     -303.860    -313.499    -391.616
  C     -304.171    -314.064    -392.794
  C     -303.486    -315.074    -393.448
  C     -302.339    -315.578    -392.806
  N     -301.553    -316.571    -393.342
  N     -304.101    -315.391    -394.644
  C     -305.126    -314.561    -394.718
  N     -305.222    -313.753    -393.621
  O     -307.796    -312.026    -399.220
  O     -306.743    -314.336    -398.967
  H     -305.908    -309.492    -393.142
  H     -306.045    -313.826    -399.426
  H     -302.434    -313.675    -390.128
  H     -305.820    -314.517    -395.547
  H     -306.416    -312.775    -392.260
  H     -304.694    -311.195    -393.867
  H     -305.916    -311.615    -395.917
  H     -308.501    -311.267    -394.310
  H     -309.368    -313.028    -395.850
  H     -300.723    -316.841    -392.837
  H     -301.767    -316.934    -394.259
  H     -308.861    -311.629    -396.777
  P     -306.514    -309.123    -396.825
  C     -307.695    -306.802    -396.537
  O     -306.488    -307.534    -396.631
  O     -307.572    -309.619    -397.750
  O     -305.019    -309.454    -397.287
  H     -304.334    -308.963    -396.808
  H     -307.466    -305.788    -396.199
  H     -308.378    -307.268    -395.826
  H     -308.166    -306.747    -397.525
  H     -310.680    -314.797    -400.005
  H     -309.092    -314.600    -400.706
  H     -310.052    -313.195    -400.310

 3  4  5  6  7  8  9  10  11  12  22  25  29  30  31  32 0
 6-311+G(2d,p)
 ****
 33  36  37 0
 6-311+G(2d,p)
 ****
 1  2  13  14  15  16  17  18  19  20  21  23  24  26 0
 3-21G
 ****
 27  28  34  35  38  39  40  41  42  43  44  45  46  47  48 0
 3-21G
 ****


