%nproc=1
%NoSave
%Mem=1900MB
#P OB98/GEN NMR

erre ene a

0 1
  C     -332.717      30.662     102.860
  O     -331.495      30.744     103.564
  H     -333.262      29.781     103.210
  H     -332.520      30.551     101.790
  H     -333.334      31.546     103.032
  P     -330.669      32.114     103.516
  C     -332.068      33.325     105.313
  O     -330.797      32.798     104.963
  C     -332.019      34.013     106.686
  O     -331.822      33.017     107.719
  C     -330.829      34.976     106.759
  O     -331.070      36.064     107.650
  C     -329.725      34.100     107.330
  O     -328.680      34.850     107.945
  C     -330.519      33.221     108.295
  N     -326.997      30.648     110.929
  C     -327.221      32.008     110.874
  N     -326.384      32.786     111.597
  N     -328.172      32.554     110.158
  C     -328.881      31.660     109.430
  C     -328.735      30.291     109.383
  C     -327.708      29.695     110.208
  O     -327.451      28.494     110.284
  N     -329.630      29.720     108.510
  C     -330.311      30.739     108.024
  N     -329.902      31.936     108.562
  O     -331.570      33.070     102.597
  O     -329.269      32.009     102.989
  H     -328.336      35.474     107.278
  H     -331.022      33.760     102.181
  H     -326.263      30.276     111.509
  H     -331.103      30.665     107.291
  H     -330.650      33.729     109.262
  H     -329.275      33.532     106.507
  H     -325.541      32.431     112.014
  H     -330.562      35.372     105.780
  H     -326.348      33.776     111.338
  H     -332.976      34.506     106.896
  H     -332.772      32.487     105.341
  H     -332.416      34.024     104.547
  P     -330.873      37.547     107.078
  C     -333.116      38.729     106.389
  O     -332.202      38.379     107.413
  O     -330.925      37.347     105.494
  O     -329.609      38.202     107.524
  H     -330.028      37.423     105.112
  H     -333.932      39.278     106.811
  H     -333.487      37.840     105.923
  H     -332.619      39.333     105.659

 6  7  8  9  10  11  12  13  14  15  26  29  33  34 0
 6-311+G(2d,p)
 ****
 36  38  39  40  41 0
 6-311+G(2d,p)
 ****
 1  2  3  4  5  16  17  18  19  20  21  22  23  24  25 0
 3-21G
 ****
 27  28  30  31  32  35  37  42  43  44  45  46  47 0
 3-21G
 ****
 48  49 0
 3-21G
 ****


