%nproc=1
%NoSave
%Mem=1900MB
#P OB98/GEN NMR

erre ene a

0 1
  C      246.231     339.630    -179.104
  O      246.644     339.065    -180.334
  H      247.017     339.463    -178.363
  H      245.315     339.144    -178.761
  H      246.067     340.704    -179.214
  P      245.711     339.351    -181.609
  C      246.071     337.170    -183.024
  O      246.374     338.537    -182.818
  C      246.849     336.615    -184.222
  O      246.388     337.285    -185.425
  C      248.359     336.824    -184.123
  O      249.013     335.694    -184.707
  C      248.603     338.049    -184.986
  O      249.950     338.117    -185.456
  C      247.538     337.863    -186.080
  N      247.201     339.111    -186.747
  C      247.560     339.222    -188.101
  O      248.142     338.294    -188.662
  N      247.292     340.389    -188.768
  C      246.768     341.388    -188.132
  N      246.549     342.528    -188.842
  C      246.416     341.339    -186.691
  C      246.652     340.183    -186.081
  O      246.066     340.876    -181.937
  O      244.259     339.088    -181.383
  H      250.543     338.236    -184.684
  H      247.017     341.067    -181.904
  H      245.989     342.203    -186.205
  H      246.414     340.050    -185.028
  H      247.888     337.147    -186.837
  H      248.403     338.961    -184.411
  H      248.704     336.952    -183.095
  H      246.604     335.553    -184.332
  H      246.826     342.522    -189.815
  H      244.995     337.037    -183.196
  H      246.201     343.386    -188.437
  H      246.335     336.625    -182.111
  P      249.780     334.649    -183.767
  C      251.285     334.002    -185.775
  O      250.492     333.536    -184.677
  O      248.988     334.115    -182.617
  O      251.029     335.507    -183.230
  H      251.157     335.291    -182.287
  H      251.700     333.165    -186.296
  H      252.076     334.620    -185.406
  H      250.671     334.569    -186.443

 6  7  8  9  10  11  12  13  14  15  16  26  30  31  32  33  35 0
 6-311+G(2d,p)
 ****
 37  38 0
 6-311+G(2d,p)
 ****
 1  2  3  4  5  17  18  19  20  21  22  23  24  25 0
 3-21G
 ****
 27  28  29  34  36  39  40  41  42  43  44  45  46 0
 3-21G
 ****


