%nproc=1
%NoSave
%Mem=1900MB
#P OB98/GEN NMR

erre ene a

0 1
  C     -121.792     378.141      83.589
  O     -123.015     377.545      83.185
  P     -123.545     376.275      84.016
  C     -122.927     374.348      82.372
  O     -123.946     375.157      82.938
  C     -123.490     373.492      81.238
  O     -124.462     372.568      81.795
  C     -124.199     374.278      80.127
  O     -123.986     373.561      78.903
  C     -125.661     374.184      80.523
  O     -126.545     374.412      79.428
  C     -125.711     372.774      81.098
  N     -129.553     369.775      82.454
  C     -128.683     369.672      81.386
  N     -128.825     368.577      80.605
  N     -127.759     370.553      81.109
  C     -127.727     371.584      81.988
  C     -128.557     371.818      83.060
  C     -129.549     370.816      83.377
  O     -130.281     370.827      84.364
  N     -128.272     373.015      83.661
  C     -127.221     373.464      83.006
  N     -126.826     372.607      82.013
  O     -124.951     376.782      84.582
  O     -122.634     375.783      85.099
  H     -126.457     375.351      79.163
  H     -124.859     377.150      85.481
  H     -130.233     369.054      82.630
  H     -126.704     374.388      83.205
  H     -125.802     372.003      80.320
  H     -125.886     374.935      81.293
  H     -129.494     367.844      80.775
  H     -123.853     375.309      80.031
  H     -128.180     368.459      79.832
  H     -122.674     372.894      80.818
  H     -122.531     373.687      83.147
  H     -122.113     374.985      82.013
  P     -122.875     374.118      77.892
  C     -124.663     375.530      76.655
  O     -123.626     374.575      76.554
  O     -122.105     372.785      77.443
  O     -121.929     375.106      78.485
  H     -121.166     372.993      77.266
  H     -124.790     376.021      75.687
  H     -124.440     376.291      77.409
  H     -125.598     375.023      76.920
  H     -121.569     378.968      82.948
  H     -121.005     377.419      83.526
  H     -121.879     378.485      84.598

 3  4  5  6  7  8  9  10  11  12  23  26  30  31 0
 6-311+G(2d,p)
 ****
 33  35  36  37  38 0
 6-311+G(2d,p)
 ****
 1  2  13  14  15  16  17  18  19  20  21  22  24  25 0
 3-21G
 ****
 27  28  29  32  34  39  40  41  42  43  44  45  46  47  48  49 0
 3-21G
 ****


