%nproc=1
%NoSave
%Mem=1900MB
#P OB98/GEN NMR

erre ene a

0 1
  C      148.159     213.622    -296.289
  O      149.242     214.443    -296.667
  H      147.333     214.258    -295.961
  H      148.452     212.976    -295.457
  H      147.823     213.012    -297.132
  P      150.514     213.727    -297.333
  C      151.244     216.048    -298.239
  O      151.624     214.868    -297.546
  C      152.434     216.619    -299.011
  O      153.439     217.060    -298.061
  C      153.091     215.614    -299.958
  O      153.487     216.299    -301.150
  C      154.326     215.161    -299.203
  O      155.358     214.687    -300.067
  C      154.684     216.423    -298.408
  N      155.478     216.105    -297.225
  C      156.827     216.468    -297.257
  O      157.296     217.021    -298.254
  N      157.626     216.148    -296.191
  C      157.141     215.448    -295.213
  N      157.991     215.135    -294.197
  C      155.741     214.983    -295.167
  C      154.972     215.350    -296.191
  O      150.025     213.411    -298.822
  O      151.007     212.510    -296.625
  H      155.431     215.304    -300.828
  H      150.441     212.597    -299.166
  H      155.391     214.379    -294.343
  H      153.933     215.050    -296.248
  H      155.251     217.125    -299.033
  H      154.059     214.345    -298.519
  H      152.438     214.776    -300.221
  H      152.099     217.509    -299.556
  H      158.950     215.457    -294.274
  H      150.902     216.792    -297.513
  H      157.736     214.559    -293.410
  H      150.420     215.818    -298.923
  P      152.615     216.020    -302.466
  C      153.193     218.281    -303.608
  O      153.248     216.862    -303.674
  O      151.236     216.770    -302.160
  O      152.403     214.569    -302.747
  H      150.531     216.117    -301.991
  H      153.653     218.697    -304.480
  H      153.713     218.618    -302.736
  H      152.172     218.596    -303.558

 6  7  8  9  10  11  12  13  14  15  16  26  30  31  32  33  35 0
 6-311+G(2d,p)
 ****
 37  38 0
 6-311+G(2d,p)
 ****
 1  2  3  4  5  17  18  19  20  21  22  23  24  25 0
 3-21G
 ****
 27  28  29  34  36  39  40  41  42  43  44  45  46 0
 3-21G
 ****


