%nproc=1
%NoSave
%Mem=1900MB
#P OB98/GEN NMR

erre ene a

0 1
  C      572.665     -72.155     432.903
  O      573.424     -71.933     434.070
  H      571.797     -71.493     432.921
  H      572.317     -73.191     432.884
  H      573.247     -71.947     432.001
  P      574.951     -72.412     434.099
  C      576.120     -70.155     434.551
  O      575.765     -71.430     435.076
  C      577.218     -69.489     435.383
  O      576.688     -69.106     436.671
  C      578.401     -70.427     435.651
  O      579.392     -70.428     434.637
  C      578.955     -69.865     436.958
  O      579.917     -68.824     436.717
  C      577.714     -69.298     437.656
  N      578.047     -70.647     442.577
  C      578.884     -69.826     441.842
  N      579.961     -69.342     442.501
  N      578.684     -69.532     440.585
  C      577.628     -70.176     440.039
  C      576.739     -71.023     440.659
  C      576.922     -71.282     442.074
  O      576.202     -71.991     442.769
  N      575.811     -71.518     439.774
  C      576.193     -71.033     438.606
  N      577.238     -70.151     438.732
  O      575.499     -71.991     432.651
  O      575.164     -73.877     434.337
  H      579.430     -68.024     436.439
  H      576.187     -72.619     432.368
  H      578.236     -70.816     443.549
  H      575.720     -71.252     437.654
  H      577.921     -68.314     438.098
  H      579.472     -70.643     437.528
  H      580.207     -69.600     443.443
  H      578.050     -71.443     435.839
  H      580.696     -68.891     441.954
  H      577.540     -68.568     434.881
  H      575.215     -69.546     434.574
  H      576.431     -70.247     433.508
  P      580.455     -71.618     434.530
  C      578.917     -73.193     433.098
  O      580.124     -72.472     433.226
  O      580.031     -72.589     435.724
  O      581.889     -71.207     434.620
  H      580.597     -72.442     436.507
  H      578.898     -73.692     432.152
  H      578.090     -72.517     433.161
  H      578.848     -73.916     433.884

 6  7  8  9  10  11  12  13  14  15  26  29  33  34 0
 6-311+G(2d,p)
 ****
 36  38  39  40  41 0
 6-311+G(2d,p)
 ****
 1  2  3  4  5  16  17  18  19  20  21  22  23  24  25 0
 3-21G
 ****
 27  28  30  31  32  35  37  42  43  44  45  46  47 0
 3-21G
 ****
 48  49 0
 3-21G
 ****


