%nproc=1
%NoSave
%Mem=1900MB
#P OB98/GEN NMR

erre ene a

0 1
  C      182.058    -356.635     -39.630
  O      180.702    -356.964     -39.951
  P      179.972    -356.077     -41.069
  C      177.486    -355.639     -41.717
  O      178.421    -355.952     -40.689
  C      176.065    -355.969     -41.256
  O      175.852    -357.397     -41.208
  C      175.757    -355.473     -39.853
  O      175.492    -354.088     -39.862
  C      174.557    -356.335     -39.469
  O      173.316    -355.710     -39.842
  C      174.784    -357.635     -40.273
  N      175.067    -358.780     -39.423
  C      174.031    -359.706     -39.281
  O      172.947    -359.520     -39.839
  N      174.242    -360.809     -38.491
  C      175.380    -360.954     -37.875
  N      175.525    -362.064     -37.101
  C      176.487    -359.986     -37.981
  C      176.265    -358.932     -38.759
  O      179.964    -357.039     -42.348
  O      180.661    -354.779     -41.356
  H      172.622    -356.360     -39.638
  H      180.038    -356.511     -43.166
  H      177.409    -360.143     -37.441
  H      177.024    -358.165     -38.894
  H      173.895    -357.870     -40.870
  H      174.513    -356.496     -38.384
  H      176.601    -355.699     -39.182
  H      175.352    -355.534     -41.972
  H      174.747    -362.707     -37.053
  H      177.724    -356.197     -42.626
  H      176.362    -362.273     -36.575
  H      177.581    -354.574     -41.966
  P      176.623    -353.105     -39.314
  C      177.056    -350.577     -39.508
  O      176.124    -351.626     -39.691
  O      177.812    -353.331     -40.373
  O      177.090    -353.305     -37.910
  H      178.609    -352.848     -40.093
  H      176.667    -349.674     -39.997
  H      178.015    -350.837     -39.963
  H      177.187    -350.375     -38.443
  H      182.418    -357.302     -38.875
  H      182.105    -355.629     -39.269
  H      182.665    -356.728     -40.506

 3  4  5  6  7  8  9  10  11  12  13  21  23  27  28  29  30  32 0
 6-311+G(2d,p)
 ****
 34  35 0
 6-311+G(2d,p)
 ****
 1  2  14  15  16  17  18  19  20  22  24  25  26 0
 3-21G
 ****
 31  33  36  37  38  39  40  41  42  43  44  45  46 0
 3-21G
 ****


