%nproc=1
%NoSave
%Mem=1900MB
#P OB98/GEN NMR

erre ene a

0 1
  C      326.038    -469.219    -169.332
  O      327.294    -469.433    -169.938
  H      326.111    -468.353    -168.670
  H      325.763    -470.097    -168.738
  H      325.262    -469.024    -170.078
  P      327.369    -470.332    -171.258
  C      326.782    -468.458    -172.937
  O      326.377    -469.688    -172.349
  C      327.580    -468.677    -174.225
  O      326.883    -469.599    -175.098
  C      327.754    -467.388    -175.030
  O      328.831    -466.565    -174.631
  C      327.966    -467.930    -176.442
  O      329.352    -468.256    -176.659
  C      327.108    -469.197    -176.455
  N      324.684    -467.943    -180.786
  C      326.038    -467.925    -180.507
  N      326.842    -467.454    -181.489
  N      326.550    -468.310    -179.369
  C      325.620    -468.667    -178.442
  C      324.250    -468.717    -178.603
  C      323.700    -468.342    -179.885
  O      322.508    -468.337    -180.183
  N      323.626    -469.129    -177.443
  C      324.612    -469.256    -176.574
  N      325.845    -469.010    -177.143
  O      326.598    -471.679    -170.846
  O      328.750    -470.636    -171.753
  H      329.675    -468.755    -175.891
  H      326.926    -472.425    -171.378
  H      324.352    -467.671    -181.688
  H      324.492    -469.543    -175.536
  H      327.631    -470.026    -176.951
  H      327.691    -467.188    -177.206
  H      326.486    -467.036    -182.336
  H      326.819    -466.810    -175.023
  H      327.796    -467.171    -181.234
  H      328.546    -469.134    -173.978
  H      327.405    -467.947    -172.199
  H      325.912    -467.822    -173.128
  P      328.804    -464.996    -174.956
  C      326.984    -464.266    -173.232
  O      327.332    -464.469    -174.588
  O      328.837    -464.963    -176.550
  O      329.923    -464.209    -174.358
  H      329.751    -464.827    -176.873
  H      325.975    -463.916    -173.171
  H      327.640    -463.539    -172.800
  H      327.074    -465.189    -172.699

 6  7  8  9  10  11  12  13  14  15  26  29  33  34 0
 6-311+G(2d,p)
 ****
 36  38  39  40  41 0
 6-311+G(2d,p)
 ****
 1  2  3  4  5  16  17  18  19  20  21  22  23  24  25 0
 3-21G
 ****
 27  28  30  31  32  35  37  42  43  44  45  46  47 0
 3-21G
 ****
 48  49 0
 3-21G
 ****


