%nproc=1
%NoSave
%Mem=1900MB
#P OB98/GEN NMR

erre ene a

0 1
  C      187.904     612.622    -521.139
  O      188.168     613.786    -521.895
  H      188.245     611.752    -521.700
  H      186.825     612.529    -520.964
  H      188.435     612.659    -520.182
  P      187.900     615.194    -521.170
  C      190.267     615.184    -520.012
  O      188.854     615.204    -519.879
  C      190.900     616.379    -519.303
  O      190.535     616.335    -517.898
  C      192.430     616.408    -519.390
  O      192.849     617.771    -519.481
  C      192.864     615.837    -518.049
  O      194.188     616.245    -517.697
  C      191.753     616.359    -517.126
  N      191.632     615.573    -515.897
  C      192.028     616.187    -514.715
  O      192.470     617.342    -514.727
  N      191.957     615.481    -513.538
  C      191.585     614.242    -513.556
  N      191.561     613.583    -512.367
  C      191.201     613.525    -514.797
  C      191.235     614.252    -515.913
  O      186.438     614.983    -520.568
  O      188.037     616.388    -522.064
  H      194.784     616.027    -518.448
  H      186.318     614.120    -520.137
  H      190.909     612.487    -514.762
  H      190.961     613.817    -516.867
  H      191.945     617.408    -516.842
  H      192.844     614.746    -518.084
  H      192.818     615.841    -520.239
  H      190.466     617.301    -519.716
  H      191.858     614.098    -511.543
  H      190.547     615.198    -521.073
  H      191.342     612.599    -512.263
  H      190.633     614.249    -519.582
  P      194.129     618.148    -520.381
  C      192.762     619.301    -522.250
  O      193.676     618.265    -521.912
  O      195.357     617.336    -520.125
  O      194.392     619.684    -519.985
  H      195.360     619.816    -519.903
  H      192.549     619.261    -523.298
  H      193.194     620.250    -522.010
  H      191.856     619.172    -521.696

 6  7  8  9  10  11  12  13  14  15  16  26  30  31  32  33  35 0
 6-311+G(2d,p)
 ****
 37  38 0
 6-311+G(2d,p)
 ****
 1  2  3  4  5  17  18  19  20  21  22  23  24  25 0
 3-21G
 ****
 27  28  29  34  36  39  40  41  42  43  44  45  46 0
 3-21G
 ****


