%nproc=1
%NoSave
%Mem=1900MB
#P OB98/GEN NMR

erre ene a

0 1
  C      771.776      52.462     333.803
  O      772.452      51.223     333.732
  P      771.579      49.880     333.857
  C      771.659      49.134     336.346
  O      772.203      48.988     335.042
  C      772.565      48.471     337.390
  O      772.557      47.032     337.208
  C      774.039      48.924     337.311
  O      774.603      48.944     338.635
  C      774.703      47.807     336.545
  O      776.106      47.754     336.816
  C      773.917      46.595     337.053
  N      776.175      42.148     336.195
  C      776.141      42.911     337.350
  N      776.890      42.461     338.387
  N      775.432      44.003     337.480
  C      774.755      44.336     336.356
  C      774.694      43.652     335.162
  C      775.487      42.453     335.024
  O      775.581      41.743     334.023
  N      773.860      44.275     334.257
  C      773.440      45.358     334.901
  N      773.984      45.459     336.156
  O      771.974      49.068     332.531
  O      770.106      50.100     333.930
  H      776.464      48.640     336.616
  H      771.236      49.108     331.889
  H      776.745      41.317     336.139
  H      772.777      46.114     334.487
  H      774.272      46.267     338.035
  H      774.558      47.947     335.466
  H      777.505      41.661     338.326
  H      774.179      49.905     336.838
  H      776.918      43.018     339.232
  H      772.152      48.672     338.391
  H      770.676      48.660     336.382
  H      771.544      50.199     336.581
  P      775.766      50.017     338.885
  C      777.117      48.240     340.249
  O      776.527      49.529     340.219
  O      774.978      51.324     339.351
  O      776.635      50.264     337.695
  H      775.498      52.124     339.157
  H      778.191      48.349     340.381
  H      776.914      47.672     339.335
  H      776.713      47.691     341.109
  H      772.482      53.260     333.705
  H      771.276      52.542     334.746
  H      771.058      52.522     333.012

 3  4  5  6  7  8  9  10  11  12  23  26  30  31 0
 6-311+G(2d,p)
 ****
 33  35  36  37  38 0
 6-311+G(2d,p)
 ****
 1  2  13  14  15  16  17  18  19  20  21  22  24  25 0
 3-21G
 ****
 27  28  29  32  34  39  40  41  42  43  44  45  46  47  48  49 0
 3-21G
 ****


