%nproc=1
%NoSave
%Mem=1900MB
#P OB98/GEN NMR

erre ene a

0 1
  C     -376.947    -755.172     449.370
  O     -377.557    -756.355     448.872
  P     -379.077    -756.625     449.351
  C     -380.290    -756.341     447.079
  O     -379.884    -757.225     448.101
  C     -380.877    -757.112     445.896
  O     -379.859    -757.635     445.017
  C     -381.735    -758.301     446.311
  O     -383.020    -757.869     446.706
  C     -381.742    -759.142     445.031
  O     -382.757    -758.680     444.122
  C     -380.349    -758.882     444.450
  N     -378.358    -763.183     442.640
  C     -379.445    -762.450     442.195
  N     -380.071    -762.921     441.099
  N     -379.867    -761.360     442.771
  C     -379.141    -761.013     443.865
  C     -378.038    -761.620     444.392
  C     -377.572    -762.841     443.732
  O     -376.596    -763.513     444.065
  N     -377.522    -760.941     445.452
  C     -378.405    -759.986     445.663
  N     -379.360    -759.926     444.681
  O     -379.671    -755.145     449.529
  O     -379.169    -757.421     450.620
  H     -383.626    -758.969     444.438
  H     -379.810    -754.961     450.480
  H     -378.073    -764.015     442.167
  H     -378.370    -759.272     446.481
  H     -380.381    -758.738     443.360
  H     -381.956    -760.185     445.242
  H     -379.791    -763.754     440.592
  H     -381.228    -758.856     447.123
  H     -380.856    -762.399     440.757
  H     -381.492    -756.400     445.305
  H     -379.430    -755.743     446.746
  H     -381.017    -755.633     447.492
  P     -383.997    -758.941     447.388
  C     -384.496    -757.456     449.455
  O     -385.001    -758.131     448.341
  O     -383.035    -759.718     448.415
  O     -384.632    -759.886     446.414
  H     -383.207    -760.670     448.350
  H     -385.134    -756.593     449.679
  H     -383.470    -757.096     449.271
  H     -384.487    -758.118     450.320
  H     -375.950    -755.098     448.990
  H     -376.919    -755.208     450.439
  H     -377.513    -754.320     449.056

 3  4  5  6  7  8  9  10  11  12  23  26  30  31 0
 6-311+G(2d,p)
 ****
 33  35  36  37  38 0
 6-311+G(2d,p)
 ****
 1  2  13  14  15  16  17  18  19  20  21  22  24  25 0
 3-21G
 ****
 27  28  29  32  34  39  40  41  42  43  44  45  46  47  48  49 0
 3-21G
 ****


