%nproc=1
%NoSave
%Mem=1900MB
#P OB98/GEN NMR

erre ene a

0 1
  C      470.456    -887.067    -298.056
  O      469.530    -888.078    -297.687
  P      467.969    -887.753    -297.514
  C      465.802    -888.917    -298.305
  O      467.206    -889.027    -298.132
  C      465.176    -890.313    -298.329
  O      465.491    -890.957    -299.584
  C      465.681    -891.262    -297.236
  O      465.095    -890.947    -295.981
  C      465.301    -892.609    -297.825
  O      463.909    -892.878    -297.610
  C      465.560    -892.393    -299.337
  N      466.837    -892.934    -299.780
  C      466.864    -894.304    -300.059
  O      465.846    -894.997    -299.953
  N      468.037    -894.865    -300.504
  C      469.098    -894.127    -300.637
  N      470.217    -894.709    -301.134
  C      469.130    -892.681    -300.286
  C      467.975    -892.164    -299.879
  O      467.544    -886.438    -298.079
  O      467.696    -887.911    -295.954
  H      463.757    -892.825    -296.647
  H      467.845    -887.081    -295.435
  H      470.046    -892.123    -300.400
  H      467.909    -891.115    -299.631
  H      464.757    -892.841    -299.930
  H      465.877    -893.446    -297.409
  H      466.774    -891.185    -297.149
  H      464.087    -890.206    -298.265
  H      470.103    -895.646    -301.528
  H      465.600    -888.417    -299.259
  H      470.972    -894.160    -301.530
  H      465.383    -888.315    -297.493
  P      465.097    -892.087    -294.864
  C      465.439    -892.121    -292.289
  O      465.359    -891.343    -293.468
  O      466.457    -892.886    -295.155
  O      463.897    -892.981    -294.897
  H      466.272    -893.711    -295.636
  H      465.851    -891.512    -291.491
  H      466.104    -892.986    -292.444
  H      464.442    -892.471    -291.995
  H      471.438    -887.488    -298.117
  H      470.446    -886.289    -297.321
  H      470.182    -886.662    -299.008

 3  4  5  6  7  8  9  10  11  12  13  23  27  28  29  30  32 0
 6-311+G(2d,p)
 ****
 34  35 0
 6-311+G(2d,p)
 ****
 1  2  14  15  16  17  18  19  20  21  22  24  25  26 0
 3-21G
 ****
 31  33  36  37  38  39  40  41  42  43  44  45  46 0
 3-21G
 ****


