%nproc=1
%NoSave
%Mem=1900MB
#P OB98/GEN NMR

erre ene a

0 1
  C      599.653      55.310     185.690
  O      599.691      54.196     186.561
  P      598.726      52.939     186.355
  C      596.183      52.633     186.049
  O      597.290      53.529     185.925
  C      594.867      53.430     186.077
  O      594.818      54.205     187.313
  C      594.736      54.408     184.893
  O      593.513      54.277     184.162
  C      594.952      55.763     185.557
  O      594.431      56.854     184.821
  C      594.370      55.525     186.952
  N      594.784      56.541     187.916
  C      593.787      57.367     188.437
  O      592.600      57.283     188.159
  N      594.209      58.354     189.277
  C      595.512      58.678     189.555
  O      595.820      59.636     190.236
  C      596.521      57.794     188.939
  C      596.119      56.772     188.175
  O      598.674      51.968     187.483
  O      599.243      52.311     184.971
  H      593.461      56.770     184.796
  H      599.202      52.909     184.212
  H      593.505      58.964     189.672
  H      597.557      58.033     189.131
  H      596.844      56.110     187.711
  H      593.279      55.501     186.926
  H      596.033      55.924     185.639
  H      595.517      54.234     184.149
  H      594.047      52.705     186.089
  H      596.281      52.071     186.979
  H      596.197      51.921     185.220
  P      593.411      54.201     182.559
  C      593.417      55.891     180.580
  O      593.446      55.688     181.981
  O      592.309      53.343     182.040
  O      594.840      53.613     182.123
  H      594.745      53.109     181.299
  H      593.932      56.824     180.352
  H      592.377      55.968     180.249
  H      593.914      55.070     180.050
  H      600.375      56.034     186.005
  H      598.677      55.747     185.712
  H      599.878      54.992     184.694

 3  4  5  6  7  8  9  10  11  12  13  23  28  29  30  31  32 0
 6-311+G(2d,p)
 ****
 33  34 0
 6-311+G(2d,p)
 ****
 1  2  14  15  16  17  18  19  20  21  22  24  25  26  27 0
 3-21G
 ****
 35  36  37  38  39  40  41  42  43  44  45 0
 3-21G
 ****


