%nproc=1
%NoSave
%Mem=1900MB
#P OB98/GEN NMR

erre ene a

0 1
  C     -197.272     -76.557     350.280
  O     -198.443     -77.030     350.912
  H     -197.490     -76.392     349.221
  H     -196.465     -77.288     350.363
  H     -196.960     -75.606     350.723
  P     -198.358     -77.459     352.454
  C     -200.092     -75.863     353.519
  O     -199.805     -77.186     353.087
  C     -201.563     -75.731     353.931
  O     -202.356     -75.426     352.746
  C     -202.150     -77.006     354.558
  O     -203.168     -76.601     355.483
  C     -202.766     -77.680     353.345
  O     -203.647     -78.709     353.719
  C     -203.357     -76.464     352.627
  N     -203.687     -76.742     351.238
  C     -204.920     -77.365     351.005
  O     -205.651     -77.655     351.951
  N     -205.273     -77.664     349.716
  C     -204.445     -77.432     348.749
  N     -204.853     -77.766     347.494
  C     -203.107     -76.829     348.954
  C     -202.800     -76.510     350.210
  O     -197.217     -76.886     353.224
  O     -198.282     -79.058     352.404
  H     -204.360     -78.364     354.303
  H     -197.372     -79.351     352.594
  H     -202.448     -76.672     348.116
  H     -201.842     -76.063     350.462
  H     -204.263     -76.111     353.132
  H     -201.989     -78.141     352.728
  H     -201.398     -77.617     355.064
  H     -201.663     -74.875     354.608
  H     -205.769     -78.186     347.402
  H     -199.875     -75.190     352.683
  H     -204.285     -77.648     346.668
  H     -199.449     -75.594     354.363
  P     -203.953     -77.636     356.419
  C     -203.871     -76.384     358.674
  O     -204.686     -76.832     357.598
  O     -203.121     -78.785     356.896
  O     -205.172     -78.166     355.519
  H     -205.383     -79.081     355.781
  H     -204.476     -75.866     359.388
  H     -203.117     -75.723     358.299
  H     -203.406     -77.226     359.144

 6  7  8  9  10  11  12  13  14  15  16  26  30  31  32  33  35 0
 6-311+G(2d,p)
 ****
 37  38 0
 6-311+G(2d,p)
 ****
 1  2  3  4  5  17  18  19  20  21  22  23  24  25 0
 3-21G
 ****
 27  28  29  34  36  39  40  41  42  43  44  45  46 0
 3-21G
 ****


