%nproc=1
%NoSave
%Mem=1900MB
#P OB98/GEN NMR

erre ene a

0 1
  C      303.374    1082.808     491.614
  O      304.294    1081.760     491.372
  H      303.315    1082.975     492.698
  H      302.389    1082.522     491.244
  H      303.706    1083.728     491.128
  P      304.555    1081.387     489.831
  C      303.112    1079.232     489.645
  O      303.245    1080.601     489.335
  C      302.048    1078.586     488.741
  O      302.468    1078.724     487.349
  C      301.838    1077.078     488.996
  O      300.475    1076.734     488.682
  C      302.760    1076.466     487.949
  O      302.457    1075.097     487.772
  C      302.494    1077.388     486.783
  N      303.717    1075.094     482.395
  C      302.605    1075.021     483.176
  N      302.355    1075.669     484.334
  C      303.385    1076.478     484.634
  C      304.570    1076.650     483.957
  C      304.722    1075.895     482.784
  N      305.861    1075.932     482.008
  N      305.398    1077.548     484.624
  C      304.713    1077.922     485.679
  N      303.486    1077.294     485.738
  O      305.669    1080.236     489.913
  O      304.983    1082.515     488.952
  H      303.065    1074.690     487.121
  H      306.559    1080.630     489.849
  H      301.819    1074.363     482.825
  H      305.047    1078.613     486.444
  H      301.514    1077.225     486.326
  H      303.814    1076.515     488.264
  H      302.066    1076.778     490.031
  H      301.101    1079.137     488.849
  H      302.807    1079.135     490.693
  H      304.063    1078.722     489.496
  H      305.899    1075.338     481.196
  H      306.643    1076.506     482.290
  P      299.326    1077.134     489.716
  C      299.236    1074.817     490.917
  O      299.407    1076.221     491.038
  O      298.011    1076.562     488.990
  O      299.165    1078.595     489.980
  H      297.303    1077.213     489.019
  H      299.319    1074.363     491.882
  H      299.991    1074.420     490.271
  H      298.270    1074.609     490.507

 6  7  8  9  10  11  12  13  14  15  25  28  32  33  34  35 0
 6-311+G(2d,p)
 ****
 36  37  40 0
 6-311+G(2d,p)
 ****
 1  2  3  4  5  16  17  18  19  20  21  22  23  24 0
 3-21G
 ****
 26  27  29  30  31  38  39 41  42  43  44  45  46  47  48 0
 3-21G
 ****


