%nproc=1
%NoSave
%Mem=1900MB
#P OB98/GEN NMR

erre ene a

0 1
  C       61.433     -65.814      96.240
  O       62.836     -65.959      96.157
  H       61.184     -64.751      96.162
  H       61.069     -66.194      97.199
  H       60.951     -66.352      95.420
  P       63.417     -67.443      96.365
  C       64.601     -67.334      98.693
  O       63.414     -67.629      97.966
  C       64.760     -65.826      98.841
  O       63.513     -65.212      99.245
  C       65.780     -65.397      99.899
  O       67.123     -65.520      99.461
  C       65.372     -63.947     100.078
  O       65.825     -63.173      98.955
  C       63.833     -64.076     100.091
  N       63.280     -64.257     101.434
  C       63.420     -63.179     102.325
  O       63.977     -62.141     101.972
  N       62.942     -63.312     103.609
  C       62.362     -64.418     103.969
  N       61.920     -64.494     105.255
  C       62.189     -65.572     103.065
  C       62.663     -65.424     101.831
  O       64.973     -67.281      96.033
  O       62.730     -68.529      95.606
  H       65.650     -62.239      99.166
  H       65.457     -68.108      96.276
  H       61.715     -66.480     103.421
  H       62.572     -66.231     101.113
  H       63.363     -63.191      99.635
  H       65.794     -63.486     100.970
  H       65.624     -65.931     100.843
  H       65.018     -65.418      97.852
  H       62.107     -63.717     105.867
  H       65.448     -67.754      98.145
  H       61.598     -65.363     105.673
  H       64.550     -67.792      99.686
  P       68.245     -65.734     100.592
  C       69.758     -63.691     101.158
  O       68.486     -64.312     101.290
  O       69.583     -65.958      99.741
  O       67.979     -66.874     101.536
  H       70.177     -66.595     100.192
  H       69.754     -62.756     101.678
  H       69.967     -63.522     100.122
  H       70.511     -64.327     101.575

 6  7  8  9  10  11  12  13  14  15  16  26  30  31  32  33  35 0
 6-311+G(2d,p)
 ****
 37  38 0
 6-311+G(2d,p)
 ****
 1  2  3  4  5  17  18  19  20  21  22  23  24  25 0
 3-21G
 ****
 27  28  29  34  36  39  40  41  42  43  44  45  46 0
 3-21G
 ****


