%nproc=1
%NoSave
%Mem=1900MB
#P OB98/GEN NMR

erre ene a

0 1
  C     -521.291     256.234    1063.389
  O     -520.898     254.902    1063.624
  P     -521.044     253.791    1062.475
  C     -519.531     251.959    1061.487
  O     -519.595     253.138    1062.286
  C     -518.163     251.291    1061.640
  O     -517.174     251.932    1060.781
  C     -517.569     251.396    1063.037
  O     -518.238     250.704    1064.074
  C     -516.120     251.024    1062.772
  O     -515.956     249.602    1062.699
  C     -515.880     251.673    1061.391
  N     -515.070     252.894    1061.489
  C     -513.951     252.935    1060.675
  O     -513.627     252.033    1059.891
  N     -513.172     254.058    1060.786
  C     -513.385     255.104    1061.651
  O     -512.628     256.048    1061.743
  C     -514.578     254.979    1062.511
  C     -515.361     253.899    1062.390
  O     -521.688     254.264    1061.214
  O     -521.850     252.619    1063.211
  H     -516.579     249.272    1062.017
  H     -521.401     252.243    1063.992
  H     -512.340     254.108    1060.206
  H     -514.780     255.794    1063.195
  H     -516.240     253.789    1063.004
  H     -515.353     250.970    1060.733
  H     -515.456     251.381    1063.573
  H     -517.573     252.444    1063.334
  H     -518.250     250.252    1061.307
  H     -519.670     252.242    1060.429
  H     -520.332     251.277    1061.770
  P     -518.463     251.313    1065.537
  C     -520.283     251.038    1067.368
  O     -519.606     250.458    1066.273
  O     -518.541     252.804    1065.630
  O     -517.142     250.805    1066.302
  H     -516.904     251.462    1066.975
  H     -520.995     250.305    1067.763
  H     -520.850     251.929    1067.051
  H     -519.575     251.303    1068.162
  H     -521.117     256.818    1064.269
  H     -522.332     256.261    1063.143
  H     -520.722     256.636    1062.576

 3  4  5  6  7  8  9  10  11  12  13  23  28  29  30  31  32 0
 6-311+G(2d,p)
 ****
 33  34 0
 6-311+G(2d,p)
 ****
 1  2  14  15  16  17  18  19  20  21  22  24  25  26  27 0
 3-21G
 ****
 35  36  37  38  39  40  41  42  43  44  45 0
 3-21G
 ****


