%nproc=1
%NoSave
%Mem=1900MB
#P OB98/GEN NMR

erre ene a

0 1
  C     -102.666    -168.222     358.173
  O     -103.074    -166.908     358.475
  H     -101.628    -168.343     358.492
  H     -102.716    -168.399     357.096
  H     -103.286    -168.949     358.705
  P     -104.554    -166.428     358.073
  C     -103.554    -164.150     357.424
  O     -104.533    -164.824     358.207
  C     -103.193    -162.791     358.037
  O     -104.389    -161.977     358.133
  C     -102.592    -162.896     359.448
  O     -101.426    -162.073     359.537
  C     -103.684    -162.329     360.348
  O     -103.183    -161.813     361.572
  C     -104.328    -161.305     359.407
  N     -105.640    -160.882     359.873
  C     -105.664    -159.732     360.682
  O     -104.617    -159.145     360.950
  N     -106.859    -159.321     361.209
  C     -107.935    -160.016     360.986
  N     -109.081    -159.566     361.556
  C     -107.942    -161.244     360.171
  C     -106.779    -161.614     359.646
  O     -105.651    -167.116     358.814
  O     -104.638    -166.646     356.485
  H     -102.395    -161.260     361.380
  H     -105.586    -166.716     356.226
  H     -108.867    -161.794     360.017
  H     -106.689    -162.506     359.025
  H     -103.691    -160.421     359.293
  H     -104.402    -163.123     360.579
  H     -102.324    -163.917     359.726
  H     -102.512    -162.272     357.352
  H     -109.022    -158.728     362.115
  H     -103.951    -164.024     356.410
  H     -109.974    -160.036     361.479
  H     -102.656    -164.780     357.393
  P     -100.138    -162.739     360.229
  C      -99.413    -160.370     361.006
  O      -99.023    -161.596     360.412
  O      -99.546    -163.677     359.077
  O     -100.465    -163.519     361.456
  H      -99.681    -164.619     359.308
  H      -98.569    -159.715     361.059
  H      -99.785    -160.554     361.992
  H     -100.180    -159.915     360.415

 6  7  8  9  10  11  12  13  14  15  16  26  30  31  32  33  35 0
 6-311+G(2d,p)
 ****
 37  38 0
 6-311+G(2d,p)
 ****
 1  2  3  4  5  17  18  19  20  21  22  23  24  25 0
 3-21G
 ****
 27  28  29  34  36  39  40  41  42  43  44  45  46 0
 3-21G
 ****


