%nproc=1
%NoSave
%Mem=1900MB
#P OB98/GEN NMR

erre ene a

0 1
  C      432.827     -44.173     249.188
  O      433.379     -43.076     248.488
  H      432.137     -43.814     249.955
  H      432.276     -44.800     248.483
  H      433.618     -44.767     249.649
  P      434.216     -42.020     249.361
  C      432.632     -39.984     249.176
  O      433.867     -40.560     248.782
  C      431.838     -39.558     247.942
  O      432.599     -38.534     247.246
  C      431.552     -40.697     246.951
  O      430.159     -40.731     246.605
  C      432.350     -40.328     245.717
  O      431.709     -40.713     244.505
  C      432.479     -38.815     245.845
  N      435.209     -34.630     244.812
  C      434.369     -34.914     245.825
  N      433.748     -36.080     246.097
  C      434.095     -37.027     245.208
  C      434.958     -36.890     244.133
  C      435.516     -35.616     243.932
  N      436.335     -35.306     242.866
  N      435.066     -38.079     243.430
  C      434.249     -38.907     244.047
  N      433.625     -38.313     245.116
  O      435.730     -42.267     248.883
  O      434.076     -42.186     250.836
  H      431.635     -41.689     244.515
  H      436.259     -42.555     249.647
  H      434.159     -34.100     246.505
  H      434.031     -39.927     243.742
  H      431.584     -38.296     245.475
  H      433.332     -40.819     245.766
  H      431.852     -41.679     247.339
  H      430.901     -39.090     248.270
  H      432.821     -39.104     249.802
  H      436.588     -34.344     242.736
  H      436.474     -36.006     242.148
  H      432.065     -40.713     249.760
  P      429.490     -42.187     246.479
  C      428.358     -41.585     244.221
  O      428.181     -42.059     245.552
  O      428.897     -42.441     247.953
  O      430.454     -43.259     246.090
  H      429.266     -43.273     248.317
  H      427.410     -41.552     243.725
  H      429.014     -42.244     243.692
  H      428.783     -40.603     244.246

 6  7  8  9  10  11  12  13  14  15  25  28  32  33  34  35 0
 6-311+G(2d,p)
 ****
 36  39  40 0
 6-311+G(2d,p)
 ****
 1  2  3  4  5  16  17  18  19  20  21  22  23  24 0
 3-21G
 ****
 26  27  29  30  31  37  38  41  42  43  44  45  46  47  48 0
 3-21G
 ****


