%nproc=1
%NoSave
%Mem=1900MB
#P OB98/GEN NMR

erre ene a

0 1
  C     -190.220    -305.367    -161.777
  O     -191.230    -305.204    -160.778
  P     -190.736    -304.718    -159.326
  C     -192.235    -302.832    -158.344
  O     -191.134    -303.171    -159.178
  C     -193.527    -302.761    -159.156
  O     -193.821    -304.026    -159.773
  C     -194.762    -302.422    -158.335
  O     -194.855    -301.031    -158.074
  C     -195.873    -302.868    -159.277
  O     -196.136    -301.838    -160.247
  C     -195.256    -304.102    -159.956
  N     -198.977    -307.543    -159.980
  C     -198.852    -306.368    -160.695
  N     -199.851    -306.086    -161.561
  N     -197.844    -305.547    -160.574
  C     -196.906    -305.974    -159.695
  C     -196.915    -307.116    -158.927
  C     -198.055    -308.000    -159.045
  O     -198.229    -309.035    -158.413
  N     -195.785    -307.213    -158.159
  C     -195.077    -306.148    -158.481
  N     -195.723    -305.356    -159.401
  O     -189.143    -304.671    -159.489
  O     -191.159    -305.611    -158.211
  H     -195.360    -301.798    -160.840
  H     -188.715    -304.806    -158.622
  H     -199.779    -308.135    -160.105
  H     -194.099    -305.907    -158.086
  H     -195.446    -304.110    -161.035
  H     -196.815    -303.062    -158.757
  H     -200.620    -306.706    -161.756
  H     -194.796    -303.017    -157.412
  H     -199.759    -305.245    -162.121
  H     -193.389    -302.011    -159.948
  H     -192.053    -301.867    -157.865
  H     -192.316    -303.574    -157.544
  P     -195.137    -300.588    -156.557
  C     -193.129    -298.974    -156.239
  O     -193.702    -300.232    -155.942
  O     -195.535    -301.963    -155.844
  O     -196.196    -299.549    -156.402
  H     -196.134    -301.793    -155.095
  H     -193.874    -298.175    -156.174
  H     -192.699    -298.994    -157.245
  H     -192.334    -298.768    -155.520
  H     -190.672    -305.691    -162.691
  H     -189.511    -306.099    -161.451
  H     -189.722    -304.433    -161.936

 3  4  5  6  7  8  9  10  11  12  23  26  30  31  33  0
 6-311+G(2d,p)
 ****
 35  36  37  38 0
 6-311+G(2d,p)
 ****
 1  2  13  14  15  16  17  18  19  20  21  22  24  25  27  28  29 0
 3-21G
 ****
 32  34  39  40  41  42  43  44  45  46  47  48  49 0
 3-21G
 ****


