%nproc=1
%NoSave
%Mem=1900MB
#P OB98/GEN NMR

erre ene a

0 1
  C       46.255     219.327    -104.874
  O       45.723     219.278    -106.182
  H       45.529     218.888    -104.185
  H       46.431     220.365    -104.580
  H       47.186     218.759    -104.811
  P       46.661     219.693    -107.414
  C       46.517     222.247    -107.063
  O       47.341     221.091    -107.028
  C       47.367     223.517    -107.184
  O       48.295     223.561    -106.055
  C       48.217     223.592    -108.469
  O       48.360     224.981    -108.794
  C       49.525     222.997    -107.982
  O       50.580     223.190    -108.892
  C       49.621     223.687    -106.615
  N       50.618     223.136    -105.704
  C       51.902     223.674    -105.748
  O       52.254     224.583    -106.497
  N       52.807     223.121    -104.881
  C       52.556     222.118    -103.990
  O       53.403     221.684    -103.216
  C       51.187     221.587    -103.995
  C       50.293     222.114    -104.836
  O       46.018     219.652    -108.760
  O       47.886     218.666    -107.316
  H       47.774     217.958    -107.979
  H       50.347     222.765    -109.746
  H       53.738     223.501    -104.896
  H       50.958     220.784    -103.308
  H       49.270     221.750    -104.856
  H       49.811     224.757    -106.751
  H       49.424     221.916    -107.869
  H       47.764     223.066    -109.312
  H       46.714     224.392    -107.090
  H       45.933     222.280    -106.137
  H       45.831     222.173    -107.914
  P       47.626     225.682    -110.039
  C       49.600     225.372    -111.685
  O       48.241     225.070    -111.391
  O       47.644     227.173    -109.991
  O       46.125     225.121    -110.010
  H       45.527     225.768    -110.430
  H       49.878     224.905    -112.607
  H       50.225     225.007    -110.897
  H       49.719     226.432    -111.772

 6  7  8  9  10  11  12  13  14  15  16  27  31  32  33  34  35 0
 6-311+G(2d,p)
 ****
 36  37 0
 6-311+G(2d,p)
 ****
 1  2  3  4  5  17  18  19  20  21  22  23  24  25 0
 3-21G
 ****
 26  28  29  30  38  39  40  41  42  43  44  45 0
 3-21G
 ****


