%nproc=1
%NoSave
%Mem=1900MB
#P OB98/GEN NMR

erre ene a

0 1
  C      -80.617    -221.433      80.805
  O      -81.042    -220.604      81.877
  P      -81.725    -219.200      81.500
  C      -80.243    -217.126      81.984
  O      -80.514    -218.221      81.116
  C      -79.356    -217.567      83.141
  O      -78.097    -218.046      82.634
  C      -79.002    -216.462      84.125
  O      -80.047    -216.229      85.058
  C      -77.780    -217.056      84.808
  O      -78.197    -217.973      85.837
  C      -77.097    -217.815      83.658
  N      -72.168    -216.721      84.038
  C      -72.962    -217.519      84.838
  N      -72.347    -218.133      85.872
  N      -74.242    -217.695      84.645
  C      -74.712    -217.051      83.551
  C      -74.025    -216.231      82.682
  C      -72.620    -216.002      82.939
  O      -71.881    -215.255      82.303
  N      -74.841    -215.770      81.682
  C      -76.007    -216.337      81.921
  N      -75.986    -217.099      83.062
  O      -82.213    -218.643      82.920
  O      -82.844    -219.283      80.521
  H      -78.624    -217.444      86.536
  H      -82.962    -218.028      82.794
  H      -71.184    -216.633      84.223
  H      -76.883    -216.223      81.299
  H      -76.742    -218.798      83.986
  H      -77.150    -216.301      85.290
  H      -71.346    -218.141      85.994
  H      -78.720    -215.541      83.602
  H      -72.905    -218.752      86.447
  H      -79.853    -218.399      83.656
  H      -81.187    -216.743      82.386
  H      -79.760    -216.331      81.408
  P      -79.937    -214.890      85.941
  C      -79.373    -215.674      88.353
  O      -78.886    -215.237      87.099
  O      -81.344    -214.835      86.698
  O      -79.669    -213.654      85.151
  H      -81.566    -213.912      86.930
  H      -80.261    -216.304      88.240
  H      -79.620    -214.805      88.971
  H      -78.595    -216.252      88.852
  H      -80.184    -222.329      81.197
  H      -79.889    -220.912      80.218
  H      -81.458    -221.682      80.192

 3  4  5  6  7  8  9  10  11  12  23  26  30  31  33  0
 6-311+G(2d,p)
 ****
 35  36  37  38 0
 6-311+G(2d,p)
 ****
 1  2  13  14  15  16  17  18  19  20  21  22  24  25  27  28  29 0
 3-21G
 ****
 32  34  39  40  41  42  43  44  45  46  47  48  49 0
 3-21G
 ****


