%nproc=1
%NoSave
%Mem=1900MB
#P OB98/GEN NMR

erre ene a

0 1
  C       43.426     -56.795      10.254
  O       44.171     -57.976      10.470
  H       44.060     -56.068       9.741
  H       43.106     -56.371      11.210
  H       42.553     -57.007       9.629
  P       43.418     -59.166      11.240
  C       44.580     -58.898      13.543
  O       43.386     -58.745      12.789
  C       44.384     -58.373      14.962
  O       44.477     -56.931      14.991
  C       43.042     -58.735      15.588
  O       43.068     -60.043      16.134
  C       42.911     -57.656      16.654
  O       43.673     -57.983      17.833
  C       43.502     -56.430      15.944
  N       41.808     -51.717      15.313
  C       42.880     -52.188      16.042
  N       43.572     -51.270      16.751
  N       43.236     -53.444      16.082
  C       42.432     -54.250      15.350
  C       41.351     -53.902      14.573
  C       40.988     -52.503      14.513
  O       40.090     -52.013      13.834
  N       40.802     -55.001      13.966
  C       41.523     -56.015      14.405
  N       42.515     -55.611      15.261
  O       44.482     -60.364      11.209
  O       42.110     -59.578      10.657
  H       44.570     -58.249      17.571
  H       44.004     -61.214      11.191
  H       41.595     -50.735      15.307
  H       41.368     -57.050      14.135
  H       44.035     -55.770      16.637
  H       41.876     -57.531      16.976
  H       43.160     -50.387      17.020
  H       42.231     -58.626      14.859
  H       44.346     -51.610      17.307
  H       45.210     -58.762      15.573
  H       45.382     -58.333      13.059
  H       44.855     -59.958      13.570
  P       41.681     -60.849      16.206
  C       41.153     -60.013      18.611
  O       40.753     -60.059      17.248
  O       42.069     -62.183      16.997
  O       41.062     -61.140      14.881
  H       41.381     -62.863      16.865
  H       40.436     -59.454      19.175
  H       42.111     -59.542      18.686
  H       41.214     -61.008      18.999

 6  7  8  9  10  11  12  13  14  15  26  29  33  34 0
 6-311+G(2d,p)
 ****
 36  38  39  40  41 0
 6-311+G(2d,p)
 ****
 1  2  3  4  5  16  17  18  19  20  21  22  23  24  25 0
 3-21G
 ****
 27  28  30  31  32  35  37  42  43  44  45  46  47 0
 3-21G
 ****
 48  49 0
 3-21G
 ****


