%nproc=1
%NoSave
%Mem=1900MB
#P OB98/GEN NMR

erre ene a

0 1
  C      100.045     464.558     535.726
  O      100.641     463.880     536.812
  H       99.843     465.592     536.023
  H       99.096     464.080     535.467
  H      100.704     464.567     534.855
  P      101.301     462.441     536.559
  C      100.020     461.032     538.298
  O      100.176     461.354     536.923
  C       99.854     459.521     538.488
  O       98.733     459.070     537.672
  C      101.083     458.697     538.070
  O      101.120     457.531     538.905
  C      100.736     458.318     536.646
  O      101.521     457.239     536.190
  C       99.233     458.053     536.779
  N       98.543     458.061     535.493
  C       98.436     456.843     534.834
  O       98.914     455.794     535.272
  N       97.794     456.863     533.626
  C       97.316     457.976     533.000
  O       96.777     457.941     531.898
  C       97.500     459.246     533.720
  C       98.092     459.233     534.915
  O      102.622     462.212     537.211
  O      101.395     462.323     534.965
  H      102.469     457.491     536.189
  H      102.160     461.770     534.714
  H       97.698     455.984     533.143
  H       97.143     460.149     533.243
  H       98.237     460.155     535.469
  H       99.052     457.076     537.252
  H      100.911     459.160     535.969
  H      102.020     459.255     538.147
  H       99.582     459.324     539.534
  H       99.134     461.556     538.672
  H      100.897     461.378     538.858
  P      101.950     457.485     540.274
  C      103.951     456.246     539.218
  O      103.520     457.405     539.923
  O      101.496     456.444     541.235
  O      101.788     458.952     540.898
  H      101.860     458.899     541.873
  H      105.005     456.306     539.043
  H      103.437     456.187     538.281
  H      103.735     455.374     539.799

 6  7  8  9  10  11  12  13  14  15  16  26  31  32  33  34  35 0
 6-311+G(2d,p)
 ****
 36  37 0
 6-311+G(2d,p)
 ****
 1  2  3  4  5  17  18  19  20  21  22  23  24  25 0
 3-21G
 ****
 27  28  29  30  38  39  40  41  42  43  44  45 0
 3-21G
 ****


