%nproc=1
%NoSave
%Mem=1900MB
#P OB98/GEN NMR

erre ene a

0 1
  C      165.102    -403.217    -141.946
  O      164.908    -404.379    -142.733
  H      166.178    -403.028    -141.859
  H      164.695    -403.354    -140.941
  H      164.631    -402.354    -142.423
  P      163.419    -404.953    -142.879
  C      164.268    -405.717    -145.202
  O      163.493    -406.041    -144.053
  C      164.090    -406.787    -146.273
  O      162.692    -406.972    -146.566
  C      164.748    -406.424    -147.596
  O      166.149    -406.598    -147.530
  C      164.017    -407.357    -148.545
  O      164.556    -408.682    -148.488
  C      162.582    -407.319    -147.967
  N      161.713    -406.385    -148.675
  C      160.690    -406.954    -149.439
  O      160.554    -408.177    -149.487
  N      159.864    -406.118    -150.151
  C      160.029    -404.834    -150.089
  N      159.176    -404.063    -150.815
  C      161.088    -404.192    -149.283
  C      161.888    -405.019    -148.613
  O      162.319    -403.948    -143.035
  O      163.233    -405.850    -141.566
  H      164.082    -409.195    -149.174
  H      162.872    -405.314    -140.835
  H      161.183    -403.119    -149.259
  H      162.690    -404.630    -147.993
  H      162.123    -408.314    -148.012
  H      164.084    -407.014    -149.576
  H      164.498    -405.394    -147.874
  H      164.482    -407.735    -145.884
  H      158.472    -404.547    -151.363
  H      165.313    -405.672    -144.884
  H      159.154    -403.057    -150.776
  H      163.982    -404.735    -145.597
  P      167.136    -405.506    -148.164
  C      169.131    -406.907    -147.317
  O      168.510    -406.289    -148.443
  O      167.267    -404.238    -147.392
  O      166.543    -405.296    -149.638
  H      165.711    -404.763    -149.617
  H      170.032    -407.393    -147.629
  H      168.464    -407.629    -146.894
  H      169.363    -406.162    -146.584

 6  7  8  9  10  11  12  13  14  15  16  26  30  31  32  33  35 0
 6-311+G(2d,p)
 ****
 37  38 0
 6-311+G(2d,p)
 ****
 1  2  3  4  5  17  18  19  20  21  22  23  24  25 0
 3-21G
 ****
 27  28  29  34  36  39  40  41  42  43  44  45  46 0
 3-21G
 ****


