%nproc=1
%NoSave
%Mem=1900MB
#P OB98/GEN NMR

erre ene a

0 1
  C      411.208     964.596     773.687
  O      412.491     964.095     773.382
  H      410.439     964.012     773.177
  H      411.050     964.527     774.761
  H      411.137     965.648     773.387
  P      412.875     964.015     771.822
  C      414.075     966.300     771.579
  O      412.923     965.532     771.290
  C      414.432     967.176     770.378
  O      414.837     966.353     769.267
  C      413.288     968.024     769.848
  O      413.075     969.192     770.637
  C      413.822     968.389     768.464
  O      414.759     969.475     768.566
  C      414.556     967.096     768.055
  N      414.527     964.653     763.525
  C      415.461     965.429     764.132
  N      415.399     966.036     765.328
  C      414.223     965.806     765.937
  C      413.171     965.047     765.435
  C      413.351     964.453     764.171
  N      412.383     963.691     763.560
  N      412.118     965.018     766.343
  C      412.533     965.740     767.362
  N      413.796     966.248     767.159
  O      411.548     963.424     771.144
  O      414.073     963.186     771.500
  H      415.150     969.585     767.680
  H      411.809     962.838     770.406
  H      416.392     965.543     763.591
  H      411.960     965.922     768.257
  H      415.517     967.321     767.576
  H      413.038     968.691     767.769
  H      412.366     967.444     769.738
  H      415.292     967.806     770.659
  H      414.912     965.634     771.796
  H      412.643     963.135     762.756
  H      411.509     963.543     764.053
  H      413.880     966.928     772.458
  P      411.566     969.707     770.805
  C      410.703     967.743     772.264
  O      410.674     968.384     770.993
  O      411.180     970.200     769.344
  O      411.379     970.783     771.823
  H      410.479     970.877     769.381
  H      410.067     966.883     772.244
  H      410.359     968.423     773.015
  H      411.705     967.441     772.489

 6  7  8  9  10  11  12  13  14  15  25  28  32  33  34  35 0
 6-311+G(2d,p)
 ****
 36  39  40 0
 6-311+G(2d,p)
 ****
 1  2  3  4  5  16  17  18  19  20  21  22  23  24 0
 3-21G
 ****
 26  27  29  30  31  37  38  41  42  43  44  45  46  47  48 0
 3-21G
 ****


