%nproc=1
%NoSave
%Mem=1900MB
#P OB98/GEN NMR

erre ene a

0 1
  C      186.722    -146.362     146.728
  O      186.691    -147.650     147.304
  H      186.871    -145.628     147.523
  H      185.768    -146.157     146.233
  H      187.537    -146.270     146.007
  P      186.842    -148.925     146.349
  C      188.432    -150.451     147.693
  O      187.093    -150.197     147.294
  C      188.746    -149.781     149.036
  O      187.828    -150.266     150.046
  C      190.157    -150.153     149.501
  O      190.740    -149.137     150.312
  C      189.916    -151.391     150.349
  O      190.968    -151.643     151.276
  C      188.577    -151.044     150.997
  N      188.181    -155.040     154.133
  C      189.224    -154.147     153.984
  N      190.312    -154.360     154.756
  N      189.205    -153.148     153.142
  C      188.083    -153.101     152.382
  C      186.996    -153.943     152.421
  C      187.012    -155.022     153.385
  O      186.124    -155.854     153.548
  N      186.056    -153.591     151.484
  C      186.576    -152.545     150.874
  N      187.801    -152.201     151.394
  O      188.275    -148.717     145.660
  O      185.762    -149.102     145.325
  H      190.982    -150.903     151.912
  H      188.312    -149.185     144.808
  H      188.240    -155.783     154.807
  H      186.110    -152.002     150.062
  H      188.729    -150.427     151.892
  H      189.857    -152.256     149.683
  H      190.442    -155.209     155.284
  H      190.822    -150.364     148.663
  H      191.180    -153.907     154.455
  H      188.596    -148.698     148.963
  H      189.085    -150.047     146.912
  H      188.613    -151.528     147.748
  P      191.827    -148.178     149.630
  C      192.092    -145.851     150.813
  O      192.426    -147.227     150.772
  O      190.949    -147.199     148.723
  O      192.857    -148.908     148.835
  H      191.037    -147.440     147.782
  H      192.587    -145.388     151.641
  H      191.033    -145.744     150.925
  H      192.404    -145.381     149.904

 6  7  8  9  10  11  12  13  14  15  26  29  33  34 0
 6-311+G(2d,p)
 ****
 36  38  39  40  41 0
 6-311+G(2d,p)
 ****
 1  2  3  4  5  16  17  18  19  20  21  22  23  24  25 0
 3-21G
 ****
 27  28  30  31  32  35  37  42  43  44  45  46  47 0
 3-21G
 ****
 48  49 0
 3-21G
 ****


