%nproc=1
%NoSave
%Mem=1900MB
#P OB98/GEN NMR

erre ene a

0 1
  C      831.081     461.144    1073.872
  O      831.480     460.326    1072.792
  H      830.031     460.943    1074.094
  H      831.186     462.196    1073.603
  H      831.677     460.927    1074.764
  P      833.046     460.317    1072.438
  C      833.257     458.062    1073.725
  O      833.517     458.784    1072.522
  C      832.525     456.760    1073.419
  O      831.133     457.022    1073.139
  C      833.064     456.011    1072.200
  O      834.204     455.231    1072.523
  C      831.869     455.137    1071.862
  O      831.812     454.021    1072.781
  C      830.695     456.087    1072.108
  N      827.178     456.559    1068.484
  C      827.269     455.646    1069.520
  N      826.294     454.722    1069.597
  N      828.248     455.639    1070.408
  C      829.158     456.614    1070.196
  C      829.162     457.587    1069.213
  C      828.094     457.584    1068.253
  O      827.948     458.374    1067.339
  N      830.247     458.401    1069.328
  C      830.903     457.938    1070.378
  N      830.291     456.842    1070.934
  O      833.727     460.983    1073.729
  O      833.423     461.033    1071.190
  H      832.526     453.413    1072.527
  H      834.487     461.515    1073.440
  H      826.420     456.515    1067.838
  H      831.823     458.344    1070.770
  H      829.810     455.573    1072.489
  H      831.924     454.718    1070.856
  H      825.541     454.637    1068.926
  H      833.266     456.695    1071.359
  H      826.323     454.053    1070.368
  H      832.576     456.132    1074.309
  H      832.639     458.678    1074.382
  H      834.211     457.861    1074.224
  P      835.391     455.140    1071.429
  C      837.150     456.262    1072.985
  O      836.753     455.086    1072.288
  O      835.406     456.619    1070.809
  O      835.218     454.088    1070.391
  H      835.809     456.593    1069.918
  H      838.066     456.076    1073.506
  H      836.389     456.535    1073.686
  H      837.293     457.060    1072.286

 6  7  8  9  10  11  12  13  14  15  26  29  33  34 0
 6-311+G(2d,p)
 ****
 36  38  39  40  41 0
 6-311+G(2d,p)
 ****
 1  2  3  4  5  16  17  18  19  20  21  22  23  24  25 0
 3-21G
 ****
 27  28  30  31  32  35  37  42  43  44  45  46  47 0
 3-21G
 ****
 48  49 0
 3-21G
 ****


