%nproc=1
%NoSave
%Mem=1900MB
#P OB98/GEN NMR

erre ene a

0 1
  C      -91.073      36.822      50.279
  O      -92.076      36.962      49.292
  H      -90.689      37.814      50.531
  H      -90.246      36.212      49.909
  H      -91.494      36.372      51.182
  P      -92.695      35.642      48.627
  C      -94.269      35.393      50.650
  O      -94.171      35.475      49.234
  C      -95.620      35.928      51.133
  O      -95.803      37.266      50.600
  C      -96.812      35.071      50.693
  O      -97.772      35.056      51.753
  C      -97.347      35.836      49.500
  O      -98.711      35.546      49.262
  C      -97.052      37.289      49.882
  N      -96.986      38.146      48.697
  C      -97.829      39.264      48.689
  O      -98.564      39.497      49.652
  N      -97.869      40.056      47.571
  C      -97.175      39.732      46.525
  N      -97.292      40.538      45.436
  C      -96.293      38.547      46.477
  C      -96.246      37.807      47.588
  O      -91.849      34.413      48.695
  O      -92.974      36.079      47.110
  H      -99.028      36.073      48.496
  H      -92.195      35.879      46.557
  H      -95.739      38.315      45.581
  H      -95.634      36.913      47.641
  H      -97.823      37.681      50.557
  H      -96.783      35.557      48.600
  H      -96.530      34.047      50.430
  H      -95.586      36.024      52.227
  H      -97.926      41.326      45.506
  H      -93.462      35.994      51.081
  H      -96.833      40.365      44.552
  H      -94.142      34.354      50.972
  P      -98.851      33.873      51.866
  C      -98.318      32.008      53.539
  O      -98.858      33.317      53.376
  O      -98.732      32.817      50.816
  O     -100.262      34.627      51.748
  H     -100.915      34.027      51.338
  H      -98.366      31.728      54.571
  H      -97.298      32.000      53.214
  H      -98.884      31.313      52.954

 6  7  8  9  10  11  12  13  14  15  16  26  30  31  32  33  35 0
 6-311+G(2d,p)
 ****
 37  38 0
 6-311+G(2d,p)
 ****
 1  2  3  4  5  17  18  19  20  21  22  23  24  25 0
 3-21G
 ****
 27  28  29  34  36  39  40  41  42  43  44  45  46 0
 3-21G
 ****


