%nproc=1
%NoSave
%Mem=1900MB
#P OB98/GEN NMR

erre ene a

0 1
  C      -39.583     -37.990      81.948
  O      -40.561     -36.971      81.986
  H      -39.317     -38.179      80.905
  H      -39.976     -38.912      82.386
  H      -38.689     -37.670      82.489
  P      -41.119     -36.566      83.435
  C      -43.476     -36.086      82.512
  O      -42.316     -35.539      83.127
  C      -44.140     -35.048      81.606
  O      -44.569     -33.930      82.423
  C      -43.209     -34.503      80.521
  O      -43.952     -34.308      79.318
  C      -42.770     -33.157      81.072
  O      -42.387     -32.247      80.044
  C      -44.003     -32.730      81.867
  N      -45.193     -28.237      83.969
  C      -45.791     -28.972      83.008
  N      -45.415     -30.172      82.516
  C      -44.322     -30.625      83.157
  C      -43.603     -29.988      84.152
  C      -44.076     -28.728      84.557
  N      -43.457     -27.962      85.517
  N      -42.515     -30.754      84.526
  C      -42.587     -31.840      83.780
  N      -43.654     -31.799      82.925
  O      -40.098     -36.083      84.409
  O      -41.903     -37.892      83.864
  H      -43.157     -32.107      79.455
  H      -42.435     -38.246      83.127
  H      -46.687     -28.538      82.570
  H      -41.889     -32.670      83.811
  H      -44.760     -32.243      81.240
  H      -41.909     -33.296      81.738
  H      -42.360     -35.160      80.329
  H      -45.045     -35.488      81.171
  H      -44.190     -36.414      83.276
  H      -43.872     -27.075      85.759
  H      -42.634     -28.318      85.980
  H      -43.168     -36.958      81.927
  P      -44.122     -35.548      78.318
  C      -44.442     -34.344      76.057
  O      -45.061     -35.094      77.097
  O      -44.474     -36.853      78.947
  O      -42.678     -35.626      77.620
  H      -42.446     -36.565      77.481
  H      -45.169     -34.105      75.309
  H      -43.656     -34.923      75.619
  H      -44.036     -33.441      76.462

 6  7  8  9  10  11  12  13  14  15  25  28  32  33  34  35 0
 6-311+G(2d,p)
 ****
 36  39  40 0
 6-311+G(2d,p)
 ****
 1  2  3  4  5  16  17  18  19  20  21  22  23  24 0
 3-21G
 ****
 26  27  29  30  31  37  38  41  42  43  44  45  46  47 0
 3-21G
 ****
 48 0
 3-21G
 ****


