%nproc=1
%NoSave
%Mem=1900MB
#P OB98/GEN NMR

erre ene a

0 1
  C     -240.767    -209.661     453.295
  O     -241.898    -210.072     454.063
  P     -242.485    -211.548     453.878
  C     -240.742    -213.462     453.896
  O     -241.560    -212.591     454.670
  C     -239.674    -214.105     454.786
  O     -238.785    -213.110     455.354
  C     -240.261    -214.829     455.990
  O     -240.986    -216.013     455.732
  C     -239.063    -214.932     456.922
  O     -238.239    -216.047     456.593
  C     -238.329    -213.604     456.628
  N     -238.521    -212.610     457.685
  C     -237.825    -212.830     458.870
  O     -237.120    -213.820     459.065
  N     -237.997    -211.888     459.848
  C     -238.805    -210.791     459.770
  O     -238.942    -209.992     460.688
  C     -239.533    -210.622     458.505
  C     -239.361    -211.524     457.534
  O     -242.830    -211.939     452.482
  O     -243.813    -211.516     454.785
  H     -238.790    -216.851     456.667
  H     -244.514    -211.996     454.304
  H     -237.496    -212.030     460.711
  H     -240.187    -209.766     458.408
  H     -239.886    -211.417     456.591
  H     -237.248    -213.781     456.529
  H     -239.374    -215.061     457.964
  H     -240.977    -214.147     456.475
  H     -239.069    -214.773     454.174
  H     -240.274    -212.905     453.084
  H     -241.376    -214.221     453.426
  P     -242.588    -216.070     455.673
  C     -244.230    -214.745     454.168
  O     -243.064    -215.534     454.238
  O     -243.334    -215.581     456.868
  O     -242.841    -217.653     455.529
  H     -243.675    -217.874     455.986
  H     -244.411    -214.485     453.120
  H     -244.107    -213.823     454.742
  H     -245.095    -215.305     454.542
  H     -240.513    -208.652     453.546
  H     -241.003    -209.721     452.253
  H     -239.938    -210.302     453.510

 3  4  5  6  7  8  9  10  11  12  13  23  28  29  30  31  32 0
 6-311+G(2d,p)
 ****
 33  34 0
 6-311+G(2d,p)
 ****
 1  2  14  15  16  17  18  19  20  21  22  24  25  26  27 0
 3-21G
 ****
 35  36  37  38  39  40  41  42  43  44  45 0
 3-21G
 ****


