%nproc=1
%NoSave
%Mem=1900MB
#P OB98/GEN NMR

erre ene a

0 1
  C      431.941    -117.871    -310.759
  O      432.698    -117.726    -311.944
  H      431.959    -116.924    -310.214
  H      432.380    -118.650    -310.129
  H      430.902    -118.124    -310.996
  P      432.652    -118.951    -312.983
  C      430.995    -117.709    -314.598
  O      431.251    -118.815    -313.752
  C      430.256    -118.156    -315.861
  O      431.204    -118.795    -316.752
  C      429.124    -119.148    -315.592
  O      428.065    -118.888    -316.514
  C      429.754    -120.494    -315.916
  O      428.778    -121.480    -316.238
  C      430.700    -120.110    -317.064
  N      431.784    -121.074    -317.238
  C      431.627    -122.019    -318.259
  O      430.607    -122.021    -318.951
  N      432.603    -122.964    -318.446
  C      433.619    -123.007    -317.641
  N      434.541    -123.983    -317.863
  C      433.804    -122.059    -316.525
  C      432.863    -121.123    -316.389
  O      432.430    -120.200    -312.006
  O      433.853    -119.060    -313.861
  H      428.196    -121.609    -315.459
  H      431.760    -120.042    -311.321
  H      434.664    -122.142    -315.874
  H      432.925    -120.384    -315.601
  H      430.149    -120.040    -318.011
  H      430.328    -120.857    -315.056
  H      428.747    -119.093    -314.568
  H      429.883    -117.265    -316.380
  H      434.363    -124.625    -318.625
  H      431.933    -117.222    -314.882
  H      435.340    -124.145    -317.268
  H      430.392    -116.987    -314.040
  P      427.120    -117.615    -316.295
  C      427.390    -116.930    -318.773
  O      427.444    -116.515    -317.414
  O      427.044    -117.097    -314.897
  O      425.680    -118.161    -316.761
  H      425.015    -117.813    -316.135
  H      427.626    -116.102    -319.408
  H      426.406    -117.284    -318.999
  H      428.098    -117.716    -318.934

 6  7  8  9  10  11  12  13  14  15  16  26  30  31  32  33  35 0
 6-311+G(2d,p)
 ****
 37  38 0
 6-311+G(2d,p)
 ****
 1  2  3  4  5  17  18  19  20  21  22  23  24  25 0
 3-21G
 ****
 27  28  29  34  36  39  40  41  42  43  44  45  46 0
 3-21G
 ****


