%nproc=1
%NoSave
%Mem=1900MB
#P OB98/GEN NMR

erre ene a

0 1
  C      374.101     125.906     366.110
  O      373.946     124.560     365.674
  P      374.105     124.270     364.105
  C      372.495     124.285     362.050
  O      372.665     124.577     363.441
  C      371.025     124.425     361.639
  O      370.280     123.288     362.154
  C      370.350     125.705     362.133
  O      369.457     126.151     361.113
  C      369.540     125.240     363.325
  O      368.441     126.104     363.594
  C      369.158     123.809     362.889
  N      368.812     122.959     364.033
  C      367.502     122.488     364.098
  O      366.669     122.863     363.266
  N      367.144     121.652     365.131
  C      368.003     121.403     366.073
  N      367.610     120.564     367.061
  C      369.367     121.972     366.097
  C      369.707     122.716     365.050
  O      374.203     122.674     364.041
  O      375.268     124.936     363.460
  H      367.912     125.711     364.321
  H      374.768     122.390     363.306
  H      370.026     121.762     366.930
  H      370.688     123.162     364.971
  H      368.287     123.843     362.208
  H      370.176     125.201     364.227
  H      371.065     126.493     362.369
  H      370.971     124.362     360.541
  H      366.669     120.196     367.039
  H      372.805     123.256     361.874
  H      368.209     120.315     367.847
  H      373.121     124.951     361.465
  P      369.768     127.562     360.419
  C      368.331     129.694     360.595
  O      368.979     128.649     361.291
  O      368.838     127.477     359.101
  O      371.183     127.875     360.054
  H      368.982     128.269     358.552
  H      367.724     130.268     361.298
  H      367.676     129.278     359.810
  H      369.077     130.345     360.142
  H      373.970     125.955     367.171
  H      373.369     126.522     365.632
  H      375.081     126.253     365.855

 3  4  5  6  7  8  9  10  11  12  13  21  23  27  28  29  30  32 0
 6-311+G(2d,p)
 ****
 34  35 0
 6-311+G(2d,p)
 ****
 1  2  14  15  16  17  18  19  20  22  24  25  26 0
 3-21G
 ****
 31  33  36  37  38  39  40  41  42  43  44  45  46 0
 3-21G
 ****


