%nproc=1
%NoSave
%Mem=1900MB
#P OB98/GEN NMR

erre ene a

0 1
  C      296.311    -895.270      34.304
  O      295.715    -895.160      33.026
  H      295.815    -894.570      34.989
  H      297.378    -895.000      34.253
  H      296.200    -896.280      34.693
  P      296.366    -896.020      31.846
  C      294.093    -896.190      30.598
  O      295.454    -895.790      30.549
  C      293.337    -895.560      29.428
  O      294.124    -895.680      28.213
  C      292.009    -896.230      29.112
  O      290.970    -895.840      29.998
  C      291.767    -895.750      27.696
  O      291.151    -894.460      27.663
  C      293.195    -895.710      27.116
  N      293.449    -896.840      26.218
  C      292.488    -897.050      25.228
  O      291.484    -896.350      25.094
  N      292.697    -898.130      24.411
  C      293.726    -899.020      24.519
  O      293.820    -900.000      23.797
  C      294.703    -898.760      25.592
  C      294.513    -897.700      26.383
  O      296.049    -897.530      32.276
  O      297.830    -895.800      31.635
  H      296.863    -897.960      32.596
  H      291.375    -894.090      26.787
  H      292.011    -898.290      23.689
  H      295.526    -899.450      25.709
  H      295.214    -897.490      27.192
  H      293.347    -894.780      26.545
  H      291.105    -896.440      27.155
  H      292.121    -897.330      29.109
  H      293.190    -894.490      29.642
  H      293.645    -895.830      31.543
  H      294.035    -897.270      30.568
  P      289.967    -896.970      30.536
  C      288.991    -895.070      32.076
  O      288.749    -896.200      31.233
  O      290.826    -897.570      31.748
  O      289.588    -897.970      29.491
  H      291.433    -896.900      32.123
  H      288.060    -894.695      32.446
  H      289.486    -894.305      31.514
  H      289.609    -895.364      32.899

 6  7  8  9  10  11  12  13  14  15  16  27  31  32  33  34  35 0
 6-311+G(2d,p)
 ****
 36  37 0
 6-311+G(2d,p)
 ****
 1  2  3  4  5  17  18  19  20  21  22  23  24  25 0
 3-21G
 ****
 26  28  29  30  38  39  40  41  42  43  44  45 0
 3-21G
 ****


