%nproc=1
%NoSave
%Mem=1900MB
#P OB98/GEN NMR

erre ene a

0 1
  C       -5.781     941.472      99.351
  O       -6.192     941.033     100.632
  H       -6.666     941.744      98.772
  H       -5.252     940.668      98.827
  H       -5.129     942.350      99.440
  P       -5.030     940.563     101.632
  C       -6.611     939.620     103.462
  O       -5.663     940.616     103.109
  C       -7.476     940.097     104.622
  O       -6.659     940.409     105.775
  C       -8.306     941.343     104.331
  O       -9.504     941.010     103.655
  C       -8.553     941.872     105.734
  O       -9.637     941.176     106.381
  C       -7.221     941.575     106.434
  N       -4.408     944.694     109.243
  C       -5.214     943.646     109.616
  N       -5.342     943.430     110.952
  N       -5.861     942.885     108.770
  C       -5.668     943.243     107.478
  C       -4.878     944.250     106.977
  C       -4.150     945.067     107.923
  O       -3.361     945.965     107.647
  N       -4.932     944.287     105.610
  C       -5.777     943.328     105.284
  N       -6.274     942.675     106.391
  O       -4.006     941.794     101.629
  O       -4.351     939.280     101.275
  H       -9.840     941.609     107.229
  H       -3.103     941.456     101.775
  H       -3.925     945.237     109.937
  H       -6.070     943.069     104.276
  H       -7.353     941.316     107.493
  H       -8.830     942.926     105.726
  H       -5.153     944.160     111.622
  H       -7.718     942.075     103.767
  H       -5.949     942.673     111.239
  H       -8.131     939.266     104.914
  H       -6.083     938.711     103.755
  H       -7.242     939.403     102.590
  P       -9.718     941.617     102.176
  C      -12.019     942.465     103.047
  O      -11.299     941.825     101.997
  O       -9.401     940.375     101.217
  O       -8.862     942.803     101.857
  H       -9.235     940.686     100.308
  H      -13.054     942.530     102.782
  H      -11.628     943.449     103.200
  H      -11.916     941.897     103.948

 6  7  8  9  10  11  12  13  14  15  26  29  33  34 0
 6-311+G(2d,p)
 ****
 36  38  39  40  41 0
 6-311+G(2d,p)
 ****
 1  2  3  4  5  16  17  18  19  20  21  22  23  24  25 0
 3-21G
 ****
 27  28  30  31  32  35  37  42  43  44  45  46  47 0
 3-21G
 ****
 48  49 0
 3-21G
 ****


