%nproc=1
%NoSave
%Mem=1900MB
#P OB98/GEN NMR

erre ene a

0 1
  C      -62.107     165.467     217.497
  O      -62.254     164.429     216.546
  H      -62.810     165.294     218.318
  H      -62.331     166.440     217.050
  H      -61.091     165.471     217.900
  P      -61.440     164.541     215.170
  C      -60.312     162.213     215.234
  O      -60.143     163.621     215.362
  C      -59.161     161.484     215.920
  O      -59.212     161.696     217.345
  C      -59.205     159.975     215.723
  O      -58.775     159.621     214.425
  C      -58.313     159.512     216.858
  O      -56.927     159.647     216.520
  C      -58.706     160.500     217.981
  N      -59.687     159.943     218.906
  C      -59.181     159.451     220.115
  O      -57.977     159.507     220.356
  N      -60.059     158.889     221.009
  C      -61.323     158.837     220.732
  N      -62.138     158.267     221.660
  C      -61.899     159.356     219.477
  C      -61.030     159.886     218.616
  O      -61.148     165.923     214.670
  O      -62.330     163.703     214.137
  H      -56.783     159.066     215.746
  H      -62.986     164.280     213.705
  H      -62.960     159.296     219.291
  H      -61.370     160.292     217.669
  H      -57.821     160.798     218.558
  H      -58.493     158.468     217.109
  H      -60.216     159.600     215.913
  H      -58.216     161.903     215.550
  H      -61.698     157.915     222.504
  H      -60.322     161.984     214.164
  H      -63.144     158.250     221.594
  H      -61.269     161.899     215.665
  P      -59.765     158.866     213.414
  C      -59.494     160.562     211.490
  O      -60.372     160.018     212.472
  O      -60.769     157.968     214.056
  O      -58.760     158.096     212.431
  H      -58.356     157.311     212.874
  H      -60.008     161.314     210.929
  H      -59.171     159.784     210.830
  H      -58.644     160.996     211.973

 6  7  8  9  10  11  12  13  14  15  16  26  30  31  32  33  35 0
 6-311+G(2d,p)
 ****
 37  38 0
 6-311+G(2d,p)
 ****
 1  2  3  4  5  17  18  19  20  21  22  23  24  25 0
 3-21G
 ****
 27  28  29  34  36  39  40  41  42  43  44  45  46 0
 3-21G
 ****


