%nproc=1
%NoSave
%Mem=1900MB
#P OB98/GEN NMR

erre ene a

0 1
  C      -16.921     -52.147     116.016
  O      -16.513     -53.380     116.579
  H      -16.507     -51.332     116.615
  H      -18.012     -52.076     116.029
  H      -16.554     -52.054     114.990
  P      -16.821     -54.693     115.714
  C      -18.969     -55.441     117.020
  O      -17.620     -55.715     116.667
  C      -19.341     -56.198     118.291
  O      -20.703     -55.922     118.672
  C      -19.307     -57.711     118.150
  O      -17.994     -58.222     118.082
  C      -20.057     -58.129     119.407
  O      -19.192     -58.179     120.547
  C      -21.100     -56.995     119.560
  N      -22.447     -57.463     119.295
  C      -23.048     -58.181     120.338
  O      -22.441     -58.359     121.395
  N      -24.297     -58.707     120.139
  C      -24.885     -58.556     118.993
  N      -26.109     -59.131     118.850
  C      -24.287     -57.809     117.868
  C      -23.077     -57.294     118.085
  O      -15.377     -55.367     115.586
  O      -17.495     -54.439     114.409
  H      -19.775     -58.248     121.332
  H      -14.903     -55.441     116.430
  H      -24.824     -57.700     116.937
  H      -22.564     -56.730     117.314
  H      -21.074     -56.584     120.577
  H      -20.500     -59.122     119.300
  H      -19.900     -58.022     117.280
  H      -18.677     -55.858     119.098
  H      -26.457     -59.680     119.627
  H      -19.644     -55.715     116.203
  H      -26.624     -59.147     117.982
  H      -19.059     -54.362     117.178
  P      -17.580     -59.313     116.987
  C      -16.870     -60.833     118.942
  O      -16.501     -60.281     117.683
  O      -17.151     -58.764     115.668
  O      -18.872     -60.257     116.911
  H      -19.114     -60.687     117.749
  H      -16.079     -61.455     119.304
  H      -17.760     -61.417     118.829
  H      -17.049     -60.042     119.640

 6  7  8  9  10  11  12  13  14  15  16  26  30  31  32  33  35 0
 6-311+G(2d,p)
 ****
 37  38 0
 6-311+G(2d,p)
 ****
 1  2  3  4  5  17  18  19  20  21  22  23  24  25 0
 3-21G
 ****
 27  28  29  34  36  39  40  41  42  43  44  45  46 0
 3-21G
 ****


