%nproc=1
%NoSave
%Mem=1900MB
#P OB98/GEN NMR

erre ene a

0 1
  C     -659.637     -94.900     987.237
  O     -660.451     -96.093     987.356
  P     -660.125     -97.424     986.519
  C     -659.733     -98.692     988.740
  O     -660.401     -98.701     987.477
  C     -660.485     -99.542     989.779
  O     -661.790     -98.953     990.028
  C     -660.744    -100.974     989.373
  O     -659.567    -101.759     989.547
  C     -661.907    -101.369     990.287
  O     -661.431    -101.694     991.601
  C     -662.711    -100.053     990.317
  N     -666.543    -102.759     988.269
  C     -665.641    -103.047     989.222
  N     -664.647    -102.275     989.712
  C     -664.650    -101.068     989.121
  C     -665.509    -100.631     988.126
  C     -666.496    -101.523     987.669
  N     -667.395    -101.239     986.686
  N     -665.183     -99.340     987.736
  C     -664.167     -98.991     988.514
  N     -663.820    -100.008     989.373
  O     -658.791     -97.427     985.854
  O     -661.301     -97.525     985.443
  H     -660.959    -102.532     991.542
  H     -660.969     -98.001     984.646
  H     -665.724    -104.043     989.655
  H     -663.665     -98.050     988.490
  H     -663.130     -99.859     991.312
  H     -662.467    -102.221     989.911
  H     -661.072    -101.021     988.324
  H     -659.920     -99.488     990.719
  H     -659.650     -97.666     989.098
  H     -668.054    -101.942     986.402
  H     -667.318    -100.331     986.220
  H     -658.731     -99.093     988.605
  P     -659.117    -102.834     988.446
  C     -656.662    -103.011     989.164
  O     -657.902    -103.677     989.060
  O     -658.863    -102.268     987.071
  O     -660.326    -103.895     988.416
  H     -660.412    -104.257     987.514
  H     -656.166    -103.033     988.182
  H     -656.031    -103.562     989.891
  H     -656.781    -101.984     989.503
  H     -660.027     -94.137     987.877
  H     -659.652     -94.558     986.223
  H     -658.631     -95.125     987.523

 3  4  5  6  7  8  9  10  11  12  22  25  29  30  31  32 0
 6-311+G(2d,p)
 ****
 33  36  37 0
 6-311+G(2d,p)
 ****
 1  2  13  14  15  16  17  18  19  20  21  23  24  26 0
 3-21G
 ****
 27  28  34  35  38  39  40  41  42  43  44  45  46  47  48 0
 3-21G
 ****


