%nproc=1
%NoSave
%Mem=1900MB
#P OB98/GEN NMR

erre ene a

0 1
  C       29.515     -92.944    -708.272
  O       30.044     -92.198    -709.354
  P       31.516     -92.575    -709.880
  C       30.885     -94.243    -711.783
  O       31.355     -92.941    -711.438
  C       30.221     -94.228    -713.154
  O       29.060     -93.370    -713.123
  C       31.088     -93.702    -714.281
  O       31.999     -94.683    -714.764
  C       30.053     -93.366    -715.337
  O       29.679     -94.555    -716.050
  C       28.861     -92.847    -714.471
  N       25.713     -88.918    -714.093
  C       25.427     -90.273    -714.122
  N       24.141     -90.641    -713.992
  N       26.353     -91.197    -714.252
  C       27.612     -90.695    -714.328
  C       28.000     -89.365    -714.317
  C       26.963     -88.354    -714.215
  O       27.147     -87.145    -714.256
  N       29.363     -89.252    -714.400
  C       29.804     -90.508    -714.419
  N       28.766     -91.410    -714.403
  O       31.771     -94.005    -709.209
  O       32.578     -91.596    -709.532
  H       30.506     -94.990    -716.322
  H       32.735     -94.167    -709.093
  H       24.958     -88.253    -713.964
  H       30.846     -90.788    -714.439
  H       27.914     -93.241    -714.818
  H       30.408     -92.626    -716.075
  H       23.409     -89.974    -713.751
  H       31.629     -92.787    -713.973
  H       23.923     -91.615    -713.953
  H       29.881     -95.257    -713.372
  H       30.150     -94.576    -711.029
  H       31.746     -94.929    -711.762
  P       33.568     -94.425    -714.511
  C       34.064     -96.688    -713.345
  O       34.240     -95.882    -714.488
  O       33.599     -93.928    -712.986
  O       34.173     -93.415    -715.443
  H       34.388     -93.358    -712.836
  H       33.069     -96.565    -712.901
  H       34.821     -96.434    -712.599
  H       34.201     -97.723    -713.624
  H       28.536     -92.583    -708.034
  H       30.152     -92.836    -707.419
  H       29.457     -93.977    -708.545

 3  4  5  6  7  8  9  10  11  12  23  26  30  31  33  0
 6-311+G(2d,p)
 ****
 35  36  37  38 0
 6-311+G(2d,p)
 ****
 1  2  13  14  15  16  17  18  19  20  21  22  24  25  27  28  29 0
 3-21G
 ****
 32  34  39  40  41  42  43  44  45  46  47  48  49 0
 3-21G
 ****


