%nproc=1
%NoSave
%Mem=1900MB
#P OB98/GEN NMR

erre ene a

0 1
  C      183.911     -14.238     -30.088
  O      184.355     -12.914     -29.758
  P      184.269     -11.674     -30.773
  C      182.693     -10.042     -29.524
  O      182.833     -10.979     -30.589
  C      182.562      -8.617     -30.070
  O      181.328      -8.476     -30.818
  C      182.485      -7.522     -29.016
  O      183.733      -7.277     -28.399
  C      181.950      -6.353     -29.841
  O      183.009      -5.667     -30.522
  C      181.037      -7.059     -30.861
  N      179.623      -6.810     -30.629
  C      179.214      -5.472     -30.622
  O      180.043      -4.567     -30.727
  N      177.877      -5.197     -30.481
  C      177.040      -6.160     -30.257
  N      175.724      -5.829     -30.144
  C      177.452      -7.572     -30.120
  C      178.742      -7.822     -30.318
  O      184.587     -12.027     -32.190
  O      185.299     -10.588     -30.205
  H      185.614     -10.023     -30.935
  H      182.600      -4.915     -30.995
  H      176.725      -8.338     -29.893
  H      179.128      -8.833     -30.251
  H      181.295      -6.744     -31.879
  H      181.435      -5.613     -29.218
  H      181.742      -7.802     -28.258
  H      183.404      -8.433     -30.750
  H      175.476      -4.854     -30.253
  H      183.587     -10.098     -28.895
  H      174.990      -6.504     -29.992
  H      181.822     -10.312     -28.920
  P      183.993      -7.976     -26.978
  C      185.317     -10.093     -27.690
  O      184.094      -9.557     -27.224
  O      182.598      -7.797     -26.210
  O      185.123      -7.390     -26.195
  H      182.765      -7.601     -25.267
  H      185.395     -11.128     -27.351
  H      186.175      -9.530     -27.316
  H      185.322     -10.077     -28.783
  H      184.071     -14.887     -29.252
  H      184.462     -14.599     -30.931
  H      182.868     -14.215     -30.327

 3  4  5  6  7  8  9  10  11  12  13  24  27  28  29  30  32 0
 6-311+G(2d,p)
 ****
 34  35 0
 6-311+G(2d,p)
 ****
 1  2  14  15  16  17  18  19  20  21  22  23  25  26 0
 3-21G
 ****
 31  33  36  37  38  39  40  41  42  43  44  45  46 0
 3-21G
 ****


