%nproc=1
%NoSave
%Mem=1900MB
#P OB98/GEN NMR

erre ene a

0 1
  C      639.359    1270.808     102.047
  O      639.232    1270.467     103.408
  H      639.831    1269.971     101.523
  H      639.986    1271.691     101.938
  H      638.373    1270.976     101.609
  P      638.620    1271.548     104.431
  C      636.529    1270.051     104.677
  O      637.026    1271.356     104.389
  C      635.042    1269.952     104.264
  O      634.976    1270.267     102.841
  C      634.479    1268.547     104.471
  O      633.273    1268.534     105.244
  C      634.425    1267.968     103.068
  O      633.453    1266.961     102.857
  C      634.239    1269.209     102.178
  N      634.697    1269.053     100.812
  C      633.771    1268.606      99.878
  O      632.591    1268.337     100.106
  N      634.242    1268.443      98.592
  C      635.522    1268.686      98.171
  O      635.887    1268.550      97.004
  C      636.457    1269.150      99.204
  C      636.023    1269.306     100.461
  O      639.102    1272.942     104.240
  O      639.018    1270.992     105.869
  H      633.408    1266.431     103.677
  H      639.768    1271.500     106.226
  H      633.583    1268.114      97.900
  H      637.483    1269.344      98.928
  H      636.676    1269.639     101.255
  H      633.180    1269.493     102.158
  H      635.406    1267.520     102.828
  H      635.173    1267.921     105.061
  H      634.469    1270.705     104.806
  H      636.637    1269.882     105.759
  H      637.115    1269.302     104.130
  P      633.209    1268.349     106.818
  C      632.543    1270.798     107.455
  O      633.506    1269.771     107.497
  O      633.938    1267.163     107.352
  O      631.634    1268.132     107.096
  H      631.571    1267.524     107.858
  H      632.922    1271.663     107.958
  H      631.648    1270.468     107.939
  H      632.328    1271.043     106.436

 6  7  8  9  10  11  12  13  14  15  16  26  31  32  33  34  35 0
 6-311+G(2d,p)
 ****
 36  37 0
 6-311+G(2d,p)
 ****
 1  2  3  4  5  17  18  19  20  21  22  23  24  25 0
 3-21G
 ****
 27  28  29  30  38  39  40  41  42  43  44  45 0
 3-21G
 ****


