%nproc=1
%NoSave
%Mem=1900MB
#P OB98/GEN NMR

erre ene a

0 1
  C      -62.506    -378.900    -294.053
  O      -62.596    -380.310    -294.042
  H      -61.693    -378.594    -293.393
  H      -63.439    -378.465    -293.686
  H      -62.297    -378.535    -295.064
  P      -63.568    -380.993    -295.118
  C      -62.249    -381.047    -297.358
  O      -62.621    -381.743    -296.177
  C      -62.038    -382.039    -298.502
  O      -61.809    -381.288    -299.730
  C      -60.837    -382.974    -298.306
  O      -61.166    -384.255    -298.853
  C      -59.760    -382.330    -299.160
  O      -58.738    -383.230    -299.573
  C      -60.597    -381.793    -300.326
  N      -59.905    -380.748    -301.079
  C      -59.212    -381.135    -302.221
  O      -59.206    -382.273    -302.688
  N      -58.492    -380.141    -302.838
  C      -58.388    -378.848    -302.427
  O      -57.713    -378.011    -303.015
  C      -59.137    -378.501    -301.210
  C      -59.849    -379.454    -300.601
  O      -64.128    -379.742    -295.943
  O      -64.659    -381.842    -294.553
  H      -64.943    -379.399    -295.531
  H      -59.171    -383.963    -300.052
  H      -57.984    -380.408    -303.667
  H      -59.067    -377.485    -300.847
  H      -60.395    -379.237    -299.688
  H      -60.877    -382.607    -301.000
  H      -59.286    -381.510    -298.608
  H      -60.521    -383.084    -297.263
  H      -62.962    -382.612    -298.647
  H      -61.315    -380.505    -297.182
  H      -63.034    -380.329    -297.616
  P      -61.905    -385.301    -297.885
  C      -64.302    -384.300    -297.531
  O      -63.465    -385.195    -298.247
  O      -61.774    -384.561    -296.472
  O      -61.315    -386.669    -297.940
  H      -61.835    -383.591    -296.545
  H      -65.301    -384.366    -297.909
  H      -63.941    -383.300    -297.652
  H      -64.295    -384.559    -296.493

 6  7  8  9  10  11  12  13  14  15  16  27  31  32  33  34  35 0
 6-311+G(2d,p)
 ****
 36  37 0
 6-311+G(2d,p)
 ****
 1  2  3  4  5  17  18  19  20  21  22  23  24  25 0
 3-21G
 ****
 26  28  29  30  38  39  40  41  42  43  44  45 0
 3-21G
 ****


