%nproc=1
%NoSave
%Mem=1900MB
#P OB98/GEN NMR

erre ene a

0 1
  C       32.169      69.265       5.968
  O       33.108      68.423       5.330
  H       31.503      68.649       6.579
  H       31.572      69.797       5.222
  H       32.682      69.981       6.614
  P       34.142      69.139       4.333
  C       36.269      70.579       4.673
  O       35.069      70.081       5.244
  C       36.695      71.870       5.367
  O       35.783      72.944       5.051
  C       36.755      71.776       6.887
  O       37.988      71.222       7.313
  C       36.600      73.238       7.279
  O       37.852      73.945       7.145
  C       35.579      73.741       6.250
  N       32.176      75.424       9.577
  C       33.531      75.670       9.486
  N       34.068      76.462      10.441
  N       34.298      75.176       8.551
  C       33.640      74.356       7.699
  C       32.303      74.031       7.685
  C       31.456      74.629       8.694
  O       30.237      74.516       8.777
  N       32.010      73.181       6.648
  C       33.172      72.967       6.062
  N       34.193      73.654       6.666
  O       33.226      70.186       3.535
  O       34.862      68.231       3.395
  H       38.180      73.842       6.234
  H       33.528      70.222       2.608
  H       31.630      75.856      10.300
  H       33.324      72.337       5.196
  H       35.757      74.787       5.975
  H       36.298      73.346       8.322
  H       33.606      76.625      11.323
  H       35.906      71.204       7.280
  H       35.073      76.580      10.414
  H       37.675      72.153       4.961
  H       36.100      70.776       3.610
  H       37.057      69.827       4.776
  P       37.995      70.322       8.638
  C       36.946      68.040       9.294
  O       36.857      69.201       8.481
  O       37.396      71.312       9.745
  O       39.339      69.820       9.043
  H       38.111      71.627      10.329
  H       36.124      67.390       9.078
  H       36.915      68.324      10.325
  H       37.866      67.532       9.091

 6  7  8  9  10  11  12  13  14  15  26  29  33  34 0
 6-311+G(2d,p)
 ****
 36  38  39  40  41 0
 6-311+G(2d,p)
 ****
 1  2  3  4  5  16  17  18  19  20  21  22  23  24  25 0
 3-21G
 ****
 27  28  30  31  32  35  37  42  43  44  45  46  47 0
 3-21G
 ****
 48  49 0
 3-21G
 ****


