%nproc=1
%NoSave
%Mem=1900MB
#P OB98/GEN NMR

erre ene a

0 1
  C       56.192    -214.113    -145.213
  O       57.505    -214.664    -145.353
  P       58.740    -213.638    -145.352
  C       59.802    -214.712    -147.485
  O       59.938    -214.389    -146.112
  C       60.927    -215.649    -147.939
  O       62.197    -214.929    -147.939
  C       61.100    -216.899    -147.069
  O       61.450    -217.975    -147.952
  C       62.281    -216.541    -146.186
  O       62.924    -217.693    -145.661
  C       63.124    -215.714    -147.162
  N       64.108    -214.872    -146.486
  C       65.124    -215.520    -145.797
  O       65.174    -216.743    -145.674
  N       66.060    -214.712    -145.212
  C       66.033    -213.346    -145.183
  O       66.898    -212.670    -144.642
  C       64.873    -212.718    -145.832
  C       63.977    -213.500    -146.442
  O       59.168    -213.660    -143.814
  O       58.380    -212.294    -145.893
  H       59.085    -214.536    -143.401
  H       63.710    -217.415    -145.148
  H       66.824    -215.162    -144.732
  H       64.785    -211.642    -145.779
  H       63.101    -213.071    -146.910
  H       63.656    -216.374    -147.859
  H       61.943    -215.920    -145.347
  H       60.197    -217.158    -146.510
  H       60.724    -215.944    -148.976
  H       59.839    -213.799    -148.087
  H       58.818    -215.165    -147.653
  P       60.680    -219.379    -147.783
  C       62.840    -220.496    -146.813
  O       61.797    -220.527    -147.760
  O       60.044    -219.527    -149.248
  O       59.654    -219.412    -146.700
  H       60.682    -219.350    -149.960
  H       63.341    -221.467    -146.809
  H       62.457    -220.299    -145.808
  H       63.568    -219.727    -147.087
  H       55.470    -214.903    -145.230
  H       56.001    -213.438    -146.020
  H       56.123    -213.587    -144.284

 3  4  5  6  7  8  9  10  11  12  13  24  28  29  30  31  32 0
 6-311+G(2d,p)
 ****
 33  34 0
 6-311+G(2d,p)
 ****
 1  2  14  15  16  17  18  19  20  21  22  23  25  26  27 0
 3-21G
 ****
 35  36  37  38  39  40  41  42  43  44  45 0
 3-21G
 ****


