%nproc=1
%NoSave
%Mem=1900MB
#P OB98/GEN NMR

erre ene a

0 1
  C     -239.732      50.913    -371.088
  O     -239.367      49.745    -370.370
  P     -239.042      49.809    -368.796
  C     -239.373      47.247    -368.711
  O     -238.508      48.346    -368.425
  C     -238.748      45.942    -368.201
  O     -237.613      45.595    -369.028
  C     -238.206      46.015    -366.771
  O     -239.269      45.957    -365.831
  C     -237.246      44.831    -366.769
  O     -237.975      43.597    -366.588
  C     -236.661      44.884    -368.199
  N     -235.344      45.524    -368.239
  C     -234.249      44.659    -368.348
  O     -234.392      43.439    -368.411
  N     -232.989      45.215    -368.428
  C     -232.836      46.513    -368.365
  N     -231.581      47.000    -368.515
  C     -233.971      47.435    -368.208
  C     -235.180      46.892    -368.153
  O     -240.168      50.303    -367.938
  O     -237.719      50.699    -368.698
  H     -238.548      43.721    -365.813
  H     -237.894      51.673    -368.619
  H     -233.797      48.510    -368.155
  H     -236.058      47.508    -368.058
  H     -236.591      43.873    -368.616
  H     -236.492      44.892    -365.984
  H     -237.649      46.947    -366.624
  H     -239.493      45.144    -368.291
  H     -230.857      46.338    -368.796
  H     -239.507      47.174    -369.790
  H     -231.403      47.964    -368.774
  H     -240.346      47.415    -368.243
  P     -238.910      46.224    -364.288
  C     -241.308      46.577    -363.336
  O     -240.192      45.714    -363.451
  O     -238.964      47.823    -364.164
  O     -237.593      45.661    -363.853
  H     -238.056      48.192    -364.180
  H     -242.157      46.002    -362.959
  H     -241.568      46.994    -364.313
  H     -241.082      47.389    -362.635
  H     -239.906      50.662    -372.113
  H     -238.942      51.631    -371.026
  H     -240.624      51.327    -370.666

 3  4  5  6  7  8  9  10  11  12  13  23  27  28  29  30  32 0
 6-311+G(2d,p)
 ****
 34  35 0
 6-311+G(2d,p)
 ****
 1  2  14  15  16  17  18  19  20  21  22  24  25  26 0
 3-21G
 ****
 31  33  36  37  38  39  40  41  42  43  44  45  46 0
 3-21G
 ****


