%nproc=1
%NoSave
%Mem=1900MB
#P OB98/GEN NMR

erre ene a

0 1
  C      -24.048     -60.606    -229.337
  O      -23.045     -61.475    -228.802
  P      -22.698     -61.330    -227.244
  C      -23.750     -63.228    -225.807
  O      -22.648     -62.793    -226.594
  C      -23.278     -64.221    -224.742
  O      -24.358     -64.605    -223.871
  C      -22.755     -65.522    -225.326
  O      -21.446     -65.352    -225.829
  C      -22.838     -66.464    -224.130
  O      -21.626     -66.449    -223.357
  C      -24.017     -65.886    -223.313
  N      -25.168     -66.773    -223.284
  C      -25.134     -67.787    -222.320
  O      -24.161     -67.901    -221.574
  N      -26.193     -68.655    -222.245
  C      -27.183     -68.539    -223.076
  N      -28.200     -69.432    -222.957
  C      -27.242     -67.501    -224.126
  C      -26.211     -66.661    -224.173
  O      -24.034     -60.698    -226.628
  O      -21.506     -60.473    -226.967
  H      -21.762     -67.103    -222.641
  H      -23.816     -60.112    -225.881
  H      -28.084     -67.448    -224.799
  H      -26.169     -65.868    -224.912
  H      -23.707     -65.702    -222.276
  H      -22.997     -67.499    -224.446
  H      -23.428     -65.872    -226.120
  H      -22.494     -63.739    -224.141
  H      -28.126     -70.131    -222.228
  H      -24.505     -63.696    -226.442
  H      -29.015     -69.439    -223.554
  H      -24.223     -62.354    -225.347
  P      -21.100     -66.011    -227.247
  C      -22.665     -64.533    -228.649
  O      -21.323     -64.836    -228.318
  O      -22.382     -66.939    -227.508
  O      -19.826     -66.776    -227.356
  H      -22.251     -67.475    -228.309
  H      -22.683     -63.597    -229.212
  H      -23.267     -64.411    -227.745
  H      -23.081     -65.328    -229.273
  H      -24.177     -60.810    -230.379
  H      -23.744     -59.588    -229.208
  H      -24.973     -60.770    -228.824

 3  4  5  6  7  8  9  10  11  12  13  21  23  27  28  29  30  32 0
 6-311+G(2d,p)
 ****
 34  35 0
 6-311+G(2d,p)
 ****
 1  2  14  15  16  17  18  19  20  22  24  25  26 0
 3-21G
 ****
 31  33  36  37  38  39  40  41  42  43  44  45  46 0
 3-21G
 ****


