%nproc=1
%NoSave
%Mem=1900MB
#P OB98/GEN NMR

erre ene a

0 1
  C      -87.255     473.142    -499.662
  O      -88.436     472.880    -500.389
  H      -87.261     474.191    -499.356
  H      -86.376     472.977    -500.291
  H      -87.197     472.518    -498.774
  P      -88.670     471.416    -501.013
  C      -91.134     471.360    -500.288
  O      -90.234     471.358    -501.395
  C      -92.483     471.979    -500.668
  O      -92.345     473.438    -500.737
  C      -93.014     471.512    -502.030
  O      -94.400     471.161    -501.915
  C      -92.872     472.742    -502.925
  O      -93.775     472.735    -504.034
  C      -93.083     473.862    -501.891
  N      -92.633     475.155    -502.390
  C      -93.617     475.988    -502.942
  O      -94.792     475.607    -502.989
  N      -93.249     477.182    -503.486
  C      -91.985     477.518    -503.533
  N      -91.689     478.706    -504.108
  C      -90.908     476.663    -502.979
  C      -91.298     475.515    -502.437
  O      -88.185     470.294    -500.151
  O      -87.961     471.457    -502.453
  H      -93.652     471.883    -504.526
  H      -87.756     470.541    -502.726
  H      -89.888     476.976    -503.034
  H      -90.587     474.812    -502.007
  H      -94.136     473.935    -501.615
  H      -91.853     472.783    -503.327
  H      -92.457     470.661    -502.440
  H      -93.198     471.782    -499.866
  H      -92.451     479.260    -504.476
  H      -90.673     471.918    -499.458
  H      -90.739     479.061    -504.215
  H      -91.292     470.320    -499.979
  P      -94.916     470.004    -502.899
  C      -95.287     468.281    -500.975
  O      -95.867     469.018    -502.047
  O      -93.605     469.131    -503.173
  O      -95.510     470.529    -504.165
  H      -93.316     469.250    -504.093
  H      -96.038     467.677    -500.510
  H      -94.879     468.960    -500.255
  H      -94.508     467.653    -501.354

 6  7  8  9  10  11  12  13  14  15  16  26  30  31  32  33  35 0
 6-311+G(2d,p)
 ****
 37  38 0
 6-311+G(2d,p)
 ****
 1  2  3  4  5  17  18  19  20  21  22  23  24  25 0
 3-21G
 ****
 27  28  29  34  36  39  40  41  42  43  44  45  46 0
 3-21G
 ****


