%nproc=1
%NoSave
%Mem=1900MB
#P OB98/GEN NMR

erre ene a

0 1
  C      244.171      38.440    -160.221
  O      244.368      38.960    -161.537
  P      245.761      38.581    -162.241
  C      244.730      37.459    -164.339
  O      245.503      38.532    -163.826
  C      244.334      37.713    -165.797
  O      243.172      38.595    -165.867
  C      245.446      38.368    -166.632
  O      245.335      37.831    -167.957
  C      245.042      39.832    -166.608
  O      245.689      40.609    -167.603
  C      243.532      39.687    -166.742
  N      242.737      44.567    -167.996
  C      243.542      43.620    -168.524
  N      243.700      42.338    -168.127
  C      242.910      42.070    -167.074
  C      242.038      42.933    -166.427
  C      241.965      44.242    -166.932
  N      241.166      45.222    -166.389
  N      241.416      42.293    -165.366
  C      241.963      41.091    -165.342
  N      242.804      40.886    -166.397
  O      245.978      37.048    -161.839
  O      246.898      39.449    -161.817
  H      245.472      40.260    -168.489
  H      246.599      36.976    -161.090
  H      244.142      43.932    -169.374
  H      241.786      40.339    -164.585
  H      243.231      39.409    -167.760
  H      245.304      40.262    -165.633
  H      246.452      38.176    -166.252
  H      244.044      36.756    -166.247
  H      243.826      37.329    -163.738
  H      241.185      46.133    -166.817
  H      240.585      45.023    -165.589
  H      245.301      36.530    -164.238
  P      246.397      36.727    -168.435
  C      244.506      35.255    -169.349
  O      245.679      35.981    -169.661
  O      246.233      35.638    -167.271
  O      247.796      37.200    -168.639
  H      245.295      35.419    -167.122
  H      244.077      34.869    -170.277
  H      243.775      35.905    -168.862
  H      244.753      34.414    -168.696
  H      243.217      38.754    -159.853
  H      244.941      38.806    -159.574
  H      244.208      37.371    -160.251

 3  4  5  6  7  8  9  10  11  12  22  25  29  30  31  32 0
 6-311+G(2d,p)
 ****
 33  36  37 0
 6-311+G(2d,p)
 ****
 1  2  13  14  15  16  17  18  19  20  21  23  24  26 0
 3-21G
 ****
 27  28  34  35  38  39  40  41  42  43  44  45  46  47  48 0
 3-21G
 ****


