%nproc=1
%NoSave
%Mem=1900MB
#P OB98/GEN NMR

erre ene a

0 1
  C     -255.341    -200.883     221.602
  O     -254.944    -199.928     222.602
  P     -253.968    -200.403     223.790
  C     -254.245    -201.670     226.064
  O     -254.804    -201.322     224.807
  C     -255.345    -201.757     227.129
  O     -255.814    -200.435     227.481
  C     -256.586    -202.517     226.684
  O     -256.387    -203.920     226.703
  C     -257.613    -202.033     227.706
  O     -257.509    -202.784     228.929
  C     -257.186    -200.570     227.921
  N     -258.061    -199.619     227.245
  C     -259.395    -199.625     227.628
  O     -259.860    -200.408     228.455
  N     -260.198    -198.701     227.010
  C     -259.820    -197.845     226.011
  O     -260.590    -197.060     225.482
  C     -258.414    -197.948     225.588
  C     -257.616    -198.816     226.214
  O     -253.790    -199.053     224.638
  O     -252.641    -200.939     223.363
  H     -257.672    -203.720     228.697
  H     -252.928    -199.064     225.093
  H     -261.164    -198.662     227.293
  H     -258.079    -197.305     224.784
  H     -256.574    -198.904     225.912
  H     -257.177    -200.333     228.993
  H     -258.644    -202.145     227.349
  H     -256.896    -202.178     225.684
  H     -254.912    -202.216     228.029
  H     -253.518    -200.910     226.358
  H     -253.723    -202.630     225.970
  P     -256.119    -204.631     225.288
  C     -257.396    -204.587     223.004
  O     -257.369    -204.224     224.368
  O     -256.365    -206.172     225.668
  O     -254.765    -204.332     224.727
  H     -257.052    -206.274     226.351
  H     -256.901    -205.548     222.835
  H     -256.901    -203.808     222.411
  H     -258.438    -204.673     222.683
  H     -255.985    -200.408     220.891
  H     -255.861    -201.693     222.069
  H     -254.472    -201.258     221.102

 3  4  5  6  7  8  9  10  11  12  13  23  28  29  30  31  32 0
 6-311+G(2d,p)
 ****
 33  34 0
 6-311+G(2d,p)
 ****
 1  2  14  15  16  17  18  19  20  21  22  24  25  26 0
 3-21G
 ****
 27  35  36  37  38  39  40  41  42  43  44  45 0
 3-21G
 ****


