%nproc=1
%NoSave
%Mem=1900MB
#P OB98/GEN NMR

erre ene a

0 1
  C     -949.640    -899.150    -914.884
  O     -950.368    -898.030    -914.434
  H     -948.905    -899.420    -914.119
  H     -949.103    -898.910    -915.817
  H     -950.310    -900.000    -915.045
  P     -951.631    -897.570    -915.339
  C     -953.554    -897.870    -913.583
  O     -952.714    -897.000    -914.309
  C     -954.093    -897.210    -912.302
  O     -952.965    -896.850    -911.476
  C     -954.905    -895.920    -912.591
  O     -955.939    -895.830    -911.634
  C     -953.885    -894.810    -912.341
  O     -954.502    -893.570    -912.024
  C     -953.043    -895.410    -911.198
  N     -951.731    -894.820    -911.089
  C     -951.663    -893.460    -910.664
  O     -952.727    -892.840    -910.452
  N     -950.460    -892.840    -910.582
  C     -949.387    -893.510    -910.910
  N     -948.212    -892.810    -910.822
  C     -949.387    -894.900    -911.395
  C     -950.586    -895.490    -911.427
  O     -952.230    -898.980    -915.786
  O     -951.275    -896.650    -916.463
  H     -954.979    -893.660    -911.139
  H     -952.292    -899.630    -915.049
  H     -948.459    -895.390    -911.683
  H     -950.671    -896.510    -911.751
  H     -953.567    -895.310    -910.216
  H     -953.245    -894.650    -913.202
  H     -955.305    -895.880    -913.612
  H     -954.693    -897.930    -911.748
  H     -948.245    -891.860    -910.526
  H     -953.045    -898.800    -913.314
  H     -947.321    -893.190    -911.119
  H     -954.409    -898.150    -914.230
  P     -957.304    -895.070    -912.008
  C     -959.077    -896.760    -911.103
  O     -958.467    -895.470    -910.980
  O     -957.712    -895.140    -913.436
  O     -956.989    -893.560    -911.585
  H     -957.361    -892.960    -912.268
  H     -959.828    -896.873    -910.349
  H     -958.333    -897.519    -910.981
  H     -959.525    -896.852    -912.070

 6  7  8  9  10  11  12  13  14  15  16  26  30  31  32  33  35 0
 6-311+G(2d,p)
 ****
 37  38 0
 6-311+G(2d,p)
 ****
 1  2  3  4  5  17  18  19  20  21  22  23  24  25 0
 3-21G
 ****
 27  28  29  34  36  39  40  41  42  43  44  45  46 0
 3-21G
 ****


