%nproc=1
%NoSave
%Mem=1900MB
#P OB98/GEN NMR

erre ene a

0 1
  C      180.943    -205.781     -45.790
  O      182.031    -205.216     -46.527
  P      181.987    -205.422     -48.120
  C      181.620    -203.045     -49.082
  O      182.549    -204.083     -48.805
  C      182.320    -201.691     -49.237
  O      182.902    -201.253     -47.971
  C      183.453    -201.696     -50.272
  O      183.458    -200.405     -50.895
  C      184.695    -201.837     -49.409
  O      185.868    -201.437     -50.114
  C      184.293    -200.950     -48.232
  N      188.826    -200.166     -46.153
  C      188.376    -199.902     -47.430
  N      189.247    -199.293     -48.264
  N      187.179    -200.206     -47.854
  C      186.401    -200.776     -46.902
  C      186.727    -201.076     -45.596
  C      188.068    -200.765     -45.150
  O      188.515    -200.972     -44.028
  N      185.657    -201.624     -44.924
  C      184.716    -201.712     -45.849
  N      185.097    -201.163     -47.044
  O      180.422    -205.395     -48.447
  O      182.630    -206.690     -48.577
  H      186.055    -202.125     -50.790
  H      180.086    -206.302     -48.564
  H      189.768    -199.928     -45.883
  H      183.738    -202.141     -45.700
  H      184.373    -199.880     -48.469
  H      184.819    -202.878     -49.091
  H      190.171    -198.985     -47.985
  H      183.371    -202.482     -51.028
  H      188.932    -199.048     -49.194
  H      181.566    -200.945     -49.524
  H      180.887    -202.975     -48.273
  H      181.053    -203.303     -49.983
  P      182.351    -200.108     -52.016
  C      180.480    -198.961     -50.643
  O      181.547    -198.801     -51.556
  O      181.293    -201.295     -51.799
  O      182.870    -200.099     -53.417
  H      180.967    -201.599     -52.668
  H      180.350    -198.028     -50.084
  H      180.671    -199.770     -49.932
  H      179.559    -199.173     -51.189
  H      181.078    -205.583     -44.747
  H      180.914    -206.838     -45.951
  H      180.024    -205.344     -46.120

 3  4  5  6  7  8  9  10  11  12  23  26  30  31 0
 6-311+G(2d,p)
 ****
 33  35  36  37  38 0
 6-311+G(2d,p)
 ****
 1  2  13  14  15  16  17  18  19  20  21  22  24  25 0
 3-21G
 ****
 27  28  29  32  34  39  40  41  42  43  44  45  46  47  48  49 0
 3-21G
 ****


