%nproc=1
%NoSave
%Mem=1900MB
#P OB98/GEN NMR

erre ene a

0 1
  C     -691.957     -23.634     221.100
  O     -693.174     -24.348     221.031
  H     -692.143     -22.676     221.595
  H     -691.575     -23.440     220.096
  H     -691.214     -24.188     221.683
  P     -693.166     -25.839     220.439
  C     -695.116     -26.449     221.996
  O     -694.642     -26.432     220.660
  C     -696.617     -26.748     222.032
  O     -697.329     -25.629     221.436
  C     -697.007     -28.018     221.263
  O     -698.054     -28.674     221.975
  C     -697.544     -27.481     219.947
  O     -698.483     -28.370     219.344
  C     -698.159     -26.148     220.380
  N     -701.299     -23.371     217.560
  C     -701.555     -24.159     218.666
  N     -702.841     -24.240     219.068
  N     -700.628     -24.814     219.320
  C     -699.383     -24.628     218.813
  C     -699.003     -23.879     217.725
  C     -700.038     -23.172     216.999
  O     -699.873     -22.473     216.006
  N     -697.647     -23.967     217.508
  C     -697.216     -24.770     218.463
  N     -698.231     -25.206     219.274
  O     -692.065     -26.720     220.937
  O     -693.086     -25.627     218.857
  H     -697.976     -29.134     218.997
  H     -692.173     -25.756     218.535
  H     -702.052     -22.898     217.088
  H     -696.184     -25.070     218.608
  H     -699.180     -26.266     220.764
  H     -696.715     -27.322     219.248
  H     -703.603     -23.750     218.628
  H     -696.169     -28.705     221.116
  H     -703.047     -24.793     219.895
  H     -696.935     -26.808     223.077
  H     -694.929     -25.461     222.440
  H     -694.569     -27.205     222.569
  P     -697.665     -29.691     223.153
  C     -699.598     -28.657     224.511
  O     -698.939     -29.854     224.114
  O     -696.375     -29.408     223.850
  O     -697.619     -31.105     222.396
  H     -696.965     -31.677     222.844
  H     -700.425     -28.899     225.145
  H     -699.953     -28.141     223.644
  H     -698.912     -28.031     225.042

 6  7  8  9  10  11  12  13  14  15  26  29  33  34 0
 6-311+G(2d,p)
 ****
 36  38  39  40  41 0
 6-311+G(2d,p)
 ****
 1  2  3  4  5  16  17  18  19  20  21  22  23  24  25 0
 3-21G
 ****
 27  28  30  31  32  35  37  42  43  44  45  46  47 0
 3-21G
 ****
 48  49 0
 3-21G
 ****


