%nproc=1
%NoSave
%Mem=1900MB
#P OB98/GEN NMR

erre ene a

0 1
  C     -537.924    -382.399     166.353
  O     -538.119    -381.110     165.822
  H     -538.862    -382.953     166.274
  H     -537.650    -382.341     167.410
  H     -537.151    -382.934     165.792
  P     -536.908    -380.054     165.848
  C     -538.573    -378.140     165.437
  O     -537.410    -378.810     164.960
  C     -539.407    -377.586     164.276
  O     -538.581    -376.700     163.474
  C     -539.960    -378.675     163.345
  O     -541.347    -378.430     163.088
  C     -539.162    -378.488     162.061
  O     -539.838    -378.974     160.910
  C     -538.907    -376.981     162.098
  N     -537.843    -376.578     161.186
  C     -538.193    -376.504     159.828
  O     -539.342    -376.762     159.471
  N     -537.221    -376.198     158.915
  C     -535.996    -376.022     159.310
  N     -535.079    -375.743     158.348
  C     -535.587    -376.125     160.720
  C     -536.548    -376.397     161.599
  O     -535.583    -380.619     165.463
  O     -536.922    -379.453     167.336
  H     -540.577    -378.363     160.699
  H     -536.032    -379.083     167.536
  H     -534.549    -375.977     161.003
  H     -536.339    -376.486     162.663
  H     -539.817    -376.422     161.842
  H     -538.209    -379.026     162.152
  H     -539.848    -379.680     163.749
  H     -540.213    -376.970     164.692
  H     -535.406    -375.695     157.394
  H     -538.254    -377.331     166.106
  H     -534.092    -375.617     158.531
  H     -539.177    -378.861     165.998
  P     -542.369    -378.861     164.244
  C     -544.330    -379.585     162.701
  O     -543.862    -378.671     163.682
  O     -542.212    -377.694     165.329
  O     -542.071    -380.200     164.834
  H     -541.762    -378.041     166.126
  H     -545.333    -379.332     162.427
  H     -544.309    -380.578     163.100
  H     -543.701    -379.534     161.837

 6  7  8  9  10  11  12  13  14  15  16  26  30  31  32  33  35 0
 6-311+G(2d,p)
 ****
 37  38 0
 6-311+G(2d,p)
 ****
 1  2  3  4  5  17  18  19  20  21  22  23  24  25 0
 3-21G
 ****
 27  28  29  34  36  39  40  41  42  43  44  45  46 0
 3-21G
 ****


