%nproc=1
%NoSave
%Mem=1900MB
#P OB98/GEN NMR

erre ene a

0 1
  C      -63.369      85.391     440.979
  O      -63.838      84.223     440.340
  H      -63.974      86.238     440.649
  H      -62.329      85.575     440.697
  H      -63.448      85.308     442.066
  P      -63.323      82.797     440.858
  C      -65.332      82.503     442.449
  O      -63.919      82.607     442.336
  C      -65.727      81.935     443.817
  O      -65.527      82.964     444.829
  C      -67.195      81.486     443.904
  O      -67.255      80.397     444.834
  C      -67.860      82.716     444.490
  O      -69.127      82.414     445.028
  C      -66.792      83.169     445.489
  N      -66.973      84.556     445.910
  C      -67.393      84.759     447.218
  O      -67.641      83.837     447.997
  N      -67.567      86.061     447.600
  C      -67.424      87.154     446.796
  O      -67.623      88.297     447.183
  C      -67.021      86.877     445.407
  C      -66.811      85.613     445.033
  O      -61.855      82.557     440.742
  O      -64.170      81.738     440.004
  H      -69.750      82.164     444.311
  H      -63.651      80.922     439.873
  H      -67.862      86.224     448.551
  H      -66.907      87.720     444.742
  H      -66.514      85.377     444.018
  H      -66.809      82.538     446.388
  H      -68.006      83.480     443.719
  H      -67.613      81.192     442.940
  H      -65.049      81.112     444.063
  H      -65.685      81.838     441.655
  H      -65.783      83.491     442.313
  P      -67.278      78.865     444.354
  C      -64.734      78.499     444.154
  O      -65.974      78.589     443.458
  O      -68.560      78.441     443.717
  O      -67.000      78.018     445.684
  H      -67.413      77.138     445.607
  H      -63.945      78.315     443.455
  H      -64.779      77.697     444.861
  H      -64.547      79.418     444.669

 6  7  8  9  10  11  12  13  14  15  16  26  31  32  33  34  35 0
 6-311+G(2d,p)
 ****
 36  37 0
 6-311+G(2d,p)
 ****
 1  2  3  4  5  17  18  19  20  21  22  23  24  25 0
 3-21G
 ****
 27  28  29  30  38  39  40  41  42  43  44  45 0
 3-21G
 ****


