%nproc=1
%NoSave
%Mem=1900MB
#P OB98/GEN NMR

erre ene a

0 1
  C      989.564     619.868     -55.977
  O      988.258     619.359     -56.177
  H      989.618     620.863     -56.421
  H      990.300     619.228     -56.476
  H      989.792     619.947     -54.910
  P      987.879     617.932     -55.530
  C      986.781     616.240     -57.117
  O      986.589     617.398     -56.330
  C      986.624     616.565     -58.599
  O      985.383     617.297     -58.790
  C      987.754     617.436     -59.172
  O      988.033     616.990     -60.507
  C      987.174     618.825     -59.202
  O      987.773     619.647     -60.199
  C      985.693     618.537     -59.469
  N      984.723     623.480     -59.852
  C      985.604     622.688     -60.558
  N      986.371     623.312     -61.485
  N      985.738     621.407     -60.369
  C      984.905     620.916     -59.418
  C      983.986     621.596     -58.657
  C      983.861     623.016     -58.861
  O      983.108     623.771     -58.263
  N      983.339     620.748     -57.773
  C      983.880     619.565     -58.016
  N      984.838     619.604     -58.985
  O      987.734     617.923     -54.043
  O      989.050     616.960     -56.026
  H      987.347     620.526     -60.148
  H      989.712     616.833     -55.316
  H      984.667     624.468     -60.043
  H      983.619     618.645     -57.488
  H      985.472     618.404     -60.541
  H      987.312     619.315     -58.227
  H      986.307     624.297     -61.698
  H      988.677     617.380     -58.570
  H      987.012     622.739     -62.035
  H      986.527     615.626     -59.167
  H      986.034     615.491     -56.829
  H      987.787     615.824     -56.937
  P      988.821     615.613     -60.721
  C      990.362     616.035     -62.752
  O      989.140     615.459     -62.291
  O      988.206     614.414     -60.072
  O      990.280     615.924     -60.106
  H      990.649     615.093     -59.761
  H      990.460     615.868     -63.804
  H      991.185     615.582     -62.241
  H      990.356     617.087     -62.557

 6  7  8  9  10  11  12  13  14  15  26  29  33  34 0
 6-311+G(2d,p)
 ****
 36  38  39  40  41 0
 6-311+G(2d,p)
 ****
 1  2  3  4  5  16  17  18  19  20  21  22  23  24  25 0
 3-21G
 ****
 27  28  30  31  32  35  37  42  43  44  45  46  47 0
 3-21G
 ****
 48  49 0
 3-21G
 ****


