%nproc=1
%NoSave
%Mem=1900MB
#P OB98/GEN NMR

erre ene a

0 1
  C     -157.024      77.769      49.378
  O     -157.565      77.620      48.081
  H     -157.423      76.973      50.013
  H     -157.323      78.731      49.798
  H     -155.935      77.689      49.358
  P     -157.039      78.573      46.906
  C     -157.040      76.797      45.035
  O     -157.623      77.995      45.526
  C     -157.978      76.105      44.041
  O     -159.126      75.594      44.765
  C     -158.496      77.032      42.936
  O     -158.585      76.300      41.714
  C     -159.885      77.406      43.415
  O     -160.752      77.756      42.337
  C     -160.313      76.143      44.159
  N     -165.275      76.581      45.008
  C     -164.596      76.187      43.872
  N     -165.349      75.880      42.793
  N     -163.293      76.103      43.797
  C     -162.670      76.419      44.958
  C     -163.226      76.823      46.148
  C     -164.668      76.931      46.210
  O     -165.324      77.291      47.184
  N     -162.260      77.070      47.091
  C     -161.123      76.818      46.471
  N     -161.317      76.430      45.171
  O     -155.563      78.816      46.905
  O     -157.856      79.932      47.105
  H     -161.644      77.899      42.723
  H     -157.291      80.627      47.489
  H     -166.277      76.640      45.008
  H     -160.138      76.903      46.911
  H     -160.743      75.388      43.489
  H     -159.825      78.263      44.097
  H     -166.357      75.899      42.788
  H     -157.858      77.904      42.796
  H     -164.878      75.558      41.956
  H     -157.457      75.240      43.615
  H     -156.852      76.133      45.885
  H     -156.085      77.031      44.551
  P     -157.380      76.397      40.659
  C     -158.009      74.183      39.514
  O     -157.782      75.575      39.339
  O     -156.026      76.089      41.204
  O     -157.466      77.920      40.162
  H     -156.560      78.244      39.986
  H     -158.268      73.743      38.574
  H     -158.809      74.037      40.209
  H     -157.120      73.721      39.891

 6  7  8  9  10  11  12  13  14  15  26  29  33  34 0
 6-311+G(2d,p)
 ****
 36  38  39  40  41 0
 6-311+G(2d,p)
 ****
 1  2  3  4  5  16  17  18  19  20  21  22  23  24  25 0
 3-21G
 ****
 27  28  30  31  32  35  37  42  43  44  45  46  47 0
 3-21G
 ****
 48  49 0
 3-21G
 ****


