%nproc=1
%NoSave
%Mem=1900MB
#P OB98/GEN NMR

erre ene a

0 1
  C      201.245     386.899    1766.703
  O      199.851     387.112    1766.877
  P      198.734     386.110    1766.293
  C      197.864     385.313    1768.614
  O      198.472     384.915    1767.366
  C      197.622     384.072    1769.510
  O      198.806     383.235    1769.571
  C      197.272     384.398    1770.955
  O      195.934     384.862    1771.067
  C      197.594     383.092    1771.649
  O      196.460     382.166    1771.506
  C      198.809     382.571    1770.847
  N      200.060     382.798    1771.589
  C      200.301     381.923    1772.657
  O      199.471     381.084    1772.994
  N      201.515     382.073    1773.332
  C      202.322     383.006    1773.024
  N      203.491     383.086    1773.733
  C      202.085     383.986    1771.950
  C      200.928     383.825    1771.290
  O      199.008     385.628    1764.897
  O      197.357     386.936    1766.344
  H      196.235     382.166    1770.535
  H      196.770     386.637    1765.604
  H      202.757     384.793    1771.722
  H      200.661     384.499    1770.462
  H      198.704     381.505    1770.641
  H      197.761     383.201    1772.731
  H      197.964     385.187    1771.344
  H      196.814     383.467    1769.059
  H      203.644     382.391    1774.452
  H      196.914     385.779    1768.382
  H      204.196     383.794    1773.546
  H      198.529     386.041    1769.140
  P      195.621     386.442    1771.245
  C      194.286     386.531    1769.028
  O      195.357     387.054    1769.777
  O      196.610     387.211    1772.091
  O      194.149     386.461    1771.891
  H      194.064     387.237    1772.463
  H      193.988     387.258    1768.272
  H      193.430     386.304    1769.701
  H      194.592     385.599    1768.540
  H      201.788     387.691    1767.175
  H      201.475     386.881    1765.658
  H      201.521     385.964    1767.145

 3  4  5  6  7  8  9  10  11  12  13  23  27  28  29  30  32 0
 6-311+G(2d,p)
 ****
 34  35 0
 6-311+G(2d,p)
 ****
 1  2  14  15  16  17  18  19  20  21  22  24  25  26 0
 3-21G
 ****
 31  33  36  37  38  39  40  41  42  43  44  45  46 0
 3-21G
 ****


