%nproc=1
%NoSave
%Mem=1900MB
#P OB98/GEN NMR

erre ene a

0 1
  C     -714.740     432.697     799.818
  O     -713.770     432.697     800.880
  P     -713.438     431.385     801.742
  C     -710.863     431.213     801.500
  O     -711.966     431.526     802.360
  C     -709.729     432.234     801.643
  O     -710.116     433.515     801.091
  C     -709.303     432.519     803.079
  O     -708.501     431.443     803.590
  C     -708.549     433.832     802.900
  O     -707.193     433.605     802.443
  C     -709.375     434.526     801.796
  N     -710.285     435.548     802.337
  C     -709.810     436.865     802.303
  O     -708.680     437.119     801.866
  N     -710.643     437.864     802.760
  C     -711.793     437.579     803.292
  N     -712.573     438.599     803.727
  C     -712.269     436.185     803.436
  C     -711.470     435.230     802.940
  O     -713.672     430.099     801.026
  O     -714.386     431.495     803.038
  H     -706.716     434.455     802.599
  H     -714.623     430.599     803.342
  H     -713.230     435.969     803.908
  H     -711.752     434.183     803.021
  H     -708.725     435.001     801.057
  H     -708.481     434.414     803.831
  H     -710.165     432.684     803.703
  H     -708.874     431.863     801.044
  H     -712.213     439.539     803.601
  H     -711.238     431.221     800.458
  H     -713.471     438.475     804.142
  H     -710.501     430.205     801.742
  P     -708.072     431.460     805.131
  C     -709.322     429.320     805.776
  O     -708.054     429.941     805.648
  O     -708.774     432.436     806.016
  O     -706.488     431.829     805.061
  H     -706.248     432.328     805.860
  H     -709.173     428.234     805.745
  H     -710.014     429.625     804.984
  H     -709.749     429.581     806.755
  H     -714.796     433.674     799.386
  H     -715.698     432.425     800.210
  H     -714.448     431.992     799.068

 3  4  5  6  7  8  9  10  11  12  13  23  27  28  29  30  32 0
 6-311+G(2d,p)
 ****
 34  35 0
 6-311+G(2d,p)
 ****
 1  2  14  15  16  17  18  19  20  21  22  24  25  26 0
 3-21G
 ****
 31  33  36  37  38  39  40  41  42  43  44  45  46 0
 3-21G
 ****


