%nproc=1
%NoSave
%Mem=1900MB
#P OB98/GEN NMR

erre ene a

0 1
  C      357.225    -316.586    -964.200
  O      357.767    -316.049    -965.407
  P      357.493    -314.516    -965.784
  C      359.754    -313.758    -964.769
  O      358.339    -313.571    -964.802
  C      360.457    -312.414    -964.979
  O      360.190    -311.868    -966.290
  C      359.992    -311.334    -964.011
  O      360.360    -311.503    -962.649
  C      360.442    -310.065    -964.700
  O      361.810    -309.773    -964.436
  C      360.238    -310.434    -966.192
  N      359.039    -309.819    -966.769
  C      359.172    -308.496    -967.192
  O      360.206    -307.847    -967.065
  N      358.048    -307.938    -967.738
  C      356.822    -308.541    -967.866
  O      355.846    -307.976    -968.345
  C      356.738    -309.920    -967.370
  C      357.831    -310.493    -966.854
  O      356.059    -314.141    -965.951
  O      358.277    -314.353    -967.173
  H      362.036    -308.959    -964.924
  H      357.720    -313.806    -967.766
  H      358.126    -306.983    -968.062
  H      355.789    -310.424    -967.459
  H      357.789    -311.505    -966.494
  H      361.101    -310.100    -966.785
  H      359.861    -309.192    -964.363
  H      358.893    -311.336    -964.021
  H      361.542    -312.577    -964.910
  H      360.050    -314.467    -965.550
  H      360.030    -314.214    -963.812
  P      359.292    -311.819    -961.487
  C      360.520    -313.857    -960.454
  O      359.381    -313.373    -961.133
  O      357.938    -311.215    -961.615
  O      360.025    -311.149    -960.213
  H      359.333    -310.813    -959.616
  H      360.421    -314.941    -960.313
  H      360.615    -313.387    -959.477
  H      361.418    -313.670    -961.053
  H      357.505    -317.615    -964.110
  H      356.158    -316.508    -964.222
  H      357.605    -316.038    -963.363

 3  4  5  6  7  8  9  10  11  12  13  23  28  29  30  31  32 0
 6-311+G(2d,p)
 ****
 33  34 0
 6-311+G(2d,p)
 ****
 1  2  14  15  16  17  18  19  20  21  22  24  25  26  27 0
 3-21G
 ****
 35  36  37  38  39  40  41  42  43  44  45 0
 3-21G
 ****


