%nproc=1
%NoSave
%Mem=1900MB
#P OB98/GEN NMR

erre ene a

0 1
  C       54.243    -368.079     358.467
  O       53.442    -368.491     357.372
  H       53.745    -367.243     358.965
  H       55.220    -367.744     358.114
  H       54.361    -368.896     359.185
  P       53.864    -369.808     356.558
  C       51.453    -370.337     355.800
  O       52.782    -370.004     355.389
  C       50.470    -369.925     354.702
  O       50.534    -368.495     354.476
  C       50.740    -370.572     353.347
  O       50.310    -371.923     353.332
  C       49.957    -369.648     352.421
  O       48.556    -369.978     352.431
  C       50.210    -368.268     353.075
  N       51.259    -367.504     352.417
  C       50.867    -366.731     351.309
  O       49.710    -366.711     350.881
  N       51.858    -366.018     350.702
  C       53.191    -366.076     351.008
  O       54.057    -365.485     350.368
  C       53.552    -366.917     352.146
  C       52.584    -367.585     352.799
  O       54.132    -371.019     357.378
  O       55.172    -369.342     355.754
  H       48.476    -370.834     351.965
  H       55.967    -369.725     356.173
  H       51.596    -365.471     349.897
  H       54.599    -366.976     352.431
  H       52.834    -368.212     353.637
  H       49.287    -367.671     353.070
  H       50.304    -369.708     351.397
  H       51.808    -370.500     353.111
  H       49.448    -370.169     355.049
  H       51.221    -369.784     356.723
  H       51.397    -371.407     355.991
  P       51.129    -373.012     352.480
  C       51.122    -374.596     354.511
  O       50.838    -374.452     353.116
  O       52.574    -372.691     352.262
  O       50.333    -373.068     351.088
  H       50.939    -372.806     350.364
  H       50.890    -375.593     354.821
  H       50.529    -373.902     355.069
  H       52.159    -374.401     354.686

 6  7  8  9  10  11  12  13  14  15  16  26  31  32  33  34  35 0
 6-311+G(2d,p)
 ****
 36  37 0
 6-311+G(2d,p)
 ****
 1  2  3  4  5  17  18  19  20  21  22  23  24  25 0
 3-21G
 ****
 27  28  29  30  38  39  40  41  42  43  44  45 0
 3-21G
 ****


