%nproc=1
%NoSave
%Mem=1900MB
#P OB98/GEN NMR

erre ene a

0 1
  C      166.141     -22.817     105.696
  O      167.199     -23.279     106.524
  P      166.931     -24.356     107.684
  C      165.519     -24.162     109.824
  O      166.409     -23.499     108.935
  C      165.491     -23.446     111.171
  O      166.791     -23.593     111.793
  C      165.236     -21.939     111.122
  O      163.867     -21.571     111.059
  C      165.811     -21.514     112.469
  O      164.866     -21.808     113.517
  C      167.043     -22.412     112.597
  N      170.447     -18.715     113.572
  C      169.352     -19.140     114.247
  N      168.483     -20.119     113.912
  C      168.866     -20.714     112.768
  C      169.955     -20.397     111.973
  C      170.772     -19.341     112.419
  N      171.899     -18.927     111.741
  N      170.007     -21.219     110.863
  C      168.974     -22.023     110.998
  N      168.258     -21.765     112.134
  O      168.074     -25.271     107.953
  O      165.616     -25.131     107.207
  H      164.023     -21.385     113.264
  H      165.522     -25.969     107.701
  H      169.140     -18.618     115.179
  H      168.702     -22.801     110.298
  H      167.213     -22.750     113.627
  H      166.020     -20.440     112.522
  H      165.814     -21.462     110.320
  H      164.752     -23.944     111.814
  H      165.877     -25.188     109.969
  H      172.494     -18.254     112.200
  H      172.230     -19.494     110.975
  H      164.519     -24.206     109.379
  P      163.455     -20.462     109.968
  C      163.693     -17.858     109.885
  O      163.818     -19.047     110.634
  O      162.066     -20.592     109.448
  O      164.581     -20.642     108.841
  H      165.480     -20.394     109.109
  H      163.829     -17.006     110.561
  H      162.703     -17.785     109.431
  H      164.462     -17.818     109.109
  H      166.523     -22.109     104.991
  H      165.393     -22.350     106.301
  H      165.711     -23.645     105.172

 3  4  5  6  7  8  9  10  11  12  22  25  29  30  31  32 0
 6-311+G(2d,p)
 ****
 33  36  37 0
 6-311+G(2d,p)
 ****
 1  2  13  14  15  16  17  18  19  20  21  23  24  26 0
 3-21G
 ****
 27  28  34  35  38  39  40  41  42  43  44  45  46  47  48 0
 3-21G
 ****


