%nproc=1
%NoSave
%Mem=1900MB
#P OB98/GEN NMR

erre ene a

0 1
  C      -79.544    -169.172      -0.551
  O      -79.658    -170.516      -0.974
  H      -78.490    -168.889      -0.564
  H      -79.924    -169.071       0.468
  H      -80.097    -168.512      -1.224
  P      -81.142    -171.109      -1.115
  C      -83.250    -169.936      -2.068
  O      -81.873    -170.235      -2.250
  C      -83.686    -168.813      -3.007
  O      -82.962    -167.596      -2.655
  C      -83.418    -169.092      -4.494
  O      -84.480    -168.502      -5.255
  C      -82.147    -168.302      -4.764
  O      -81.970    -168.003      -6.146
  C      -82.394    -167.083      -3.877
  N      -80.535    -162.430      -3.422
  C      -81.831    -162.863      -3.626
  N      -82.782    -161.909      -3.725
  N      -82.168    -164.121      -3.725
  C      -81.120    -164.968      -3.574
  C      -79.794    -164.668      -3.374
  C      -79.431    -163.268      -3.293
  O      -78.298    -162.824      -3.134
  N      -79.035    -165.810      -3.301
  C      -79.903    -166.795      -3.455
  N      -81.179    -166.335      -3.624
  O      -81.842    -170.628       0.241
  O      -81.227    -172.588      -1.295
  H      -82.093    -168.833      -6.652
  H      -81.772    -171.323       0.922
  H      -80.328    -161.449      -3.368
  H      -79.660    -167.849      -3.456
  H      -83.112    -166.383      -4.321
  H      -81.271    -168.866      -4.420
  H      -82.605    -160.923      -3.612
  H      -83.327    -170.154      -4.746
  H      -83.745    -162.208      -3.830
  H      -84.748    -168.607      -2.834
  H      -83.411    -169.620      -1.032
  H      -83.842    -170.836      -2.263
  P      -85.481    -169.478      -6.034
  C      -87.683    -170.701      -5.384
  O      -86.839    -169.577      -5.187
  O      -84.819    -170.921      -5.808
  O      -85.641    -169.166      -7.485
  H      -85.052    -171.511      -6.547
  H      -88.541    -170.618      -4.750
  H      -87.147    -171.596      -5.144
  H      -87.997    -170.736      -6.406

 6  7  8  9  10  11  12  13  14  15  26  29  33  34 0
 6-311+G(2d,p)
 ****
 36  38  39  40  41 0
 6-311+G(2d,p)
 ****
 1  2  3  4  5  16  17  18  19  20  21  22  23  24  25 0
 3-21G
 ****
 27  28  30  31  32  35  37  42  43  44  45  46  47 0
 3-21G
 ****
 48  49 0
 3-21G
 ****


