%nproc=1
%NoSave
%Mem=1900MB
#P OB98/GEN NMR

erre ene a

0 1
  C      170.555     251.820     144.961
  O      170.451     253.189     145.311
  H      171.496     251.427     145.355
  H      170.558     251.695     143.871
  H      169.726     251.253     145.394
  P      169.227     254.031     144.713
  C      170.670     255.569     143.215
  O      169.710     254.524     143.266
  C      170.859     256.035     141.774
  O      171.158     254.915     140.919
  C      169.621     256.689     141.184
  O      169.452     258.002     141.682
  C      169.915     256.582     139.703
  O      170.817     257.615     139.276
  C      170.586     255.194     139.620
  N      169.658     254.140     139.219
  C      169.169     254.215     137.909
  O      169.525     255.129     137.163
  N      168.271     253.267     137.491
  C      167.906     252.317     138.294
  N      167.013     251.406     137.817
  C      168.411     252.192     139.677
  C      169.273     253.131     140.066
  O      168.668     255.121     145.579
  O      168.130     252.916     144.372
  H      170.836     257.566     138.298
  H      167.548     252.761     145.139
  H      168.082     251.378     140.309
  H      169.688     253.109     141.070
  H      171.419     255.210     138.904
  H      169.005     256.670     139.106
  H      168.735     256.078     141.400
  H      171.719     256.723     141.742
  H      166.690     251.539     136.864
  H      171.611     255.166     143.607
  H      166.730     250.581     138.317
  H      170.362     256.411     143.849
  P      168.113     258.827     141.378
  C      169.676     260.523     140.218
  O      168.470     259.770     140.124
  O      167.507     259.523     142.552
  O      167.145     257.724     140.727
  H      166.798     257.100     141.411
  H      169.802     261.106     139.330
  H      170.505     259.856     140.328
  H      169.626     261.172     141.067

 6  7  8  9  10  11  12  13  14  15  16  26  30  31  32  33  35 0
 6-311+G(2d,p)
 ****
 37  38 0
 6-311+G(2d,p)
 ****
 1  2  3  4  5  17  18  19  20  21  22  23  24  25 0
 3-21G
 ****
 27  28  29  34  36  39  40  41  42  43  44  45  46 0
 3-21G
 ****


