%nproc=1
%NoSave
%Mem=1900MB
#P OB98/GEN NMR

erre ene a

0 1
  C      -99.321     138.483     -69.849
  O      -99.737     138.826     -68.543
  H     -100.095     137.863     -70.310
  H      -98.392     137.910     -69.813
  H      -99.182     139.379     -70.461
  P      -98.843     139.845     -67.689
  C      -97.488     137.891     -66.693
  O      -97.441     139.117     -67.416
  C      -96.223     137.736     -65.852
  O      -95.100     137.388     -66.695
  C      -95.811     139.006     -65.116
  O      -96.639     139.228     -63.992
  C      -94.359     138.685     -64.798
  O      -94.259     137.812     -63.662
  C      -93.914     137.949     -66.087
  N      -93.205     138.823     -67.024
  C      -91.964     139.291     -66.605
  O      -91.468     139.006     -65.516
  N      -91.325     140.141     -67.469
  C      -91.840     140.625     -68.638
  O      -91.332     141.548     -69.268
  C      -93.120     140.040     -69.063
  C      -93.742     139.190     -68.242
  O      -99.499     140.428     -66.481
  O      -98.454     140.982     -68.750
  H      -99.027     141.761     -68.614
  H      -93.309     137.753     -63.441
  H      -90.445     140.523     -67.154
  H      -93.530     140.349     -70.016
  H      -94.700     138.768     -68.522
  H      -93.256     137.107     -65.839
  H      -93.776     139.578     -64.567
  H      -95.842     139.864     -65.799
  H      -96.382     136.912     -65.146
  H      -97.551     137.067     -67.411
  H      -98.380     137.883     -66.060
  P      -97.341     140.646     -63.747
  C      -96.248     141.118     -61.477
  O      -96.367     141.530     -62.832
  O      -98.752     140.580     -63.265
  O      -97.259     141.378     -65.171
  H      -98.153     141.675     -65.429
  H      -95.578     141.774     -60.962
  H      -95.867     140.119     -61.440
  H      -97.209     141.151     -61.008

 6  7  8  9  10  11  12  13  14  15  16  27  31  32  33  34  35 0
 6-311+G(2d,p)
 ****
 36  37 0
 6-311+G(2d,p)
 ****
 1  2  3  4  5  17  18  19  20  21  22  23  24  25 0
 3-21G
 ****
 26  28  29  30  38  39  40  41  42  43  44  45 0
 3-21G
 ****


