%nproc=1
%NoSave
%Mem=1900MB
#P OB98/GEN NMR

erre ene a

0 1
  C      183.362    -203.653       4.361
  O      183.346    -202.367       3.767
  P      182.020    -201.660       3.239
  C      180.839    -201.371       0.939
  O      181.798    -202.092       1.700
  C      181.283    -201.143      -0.517
  O      181.465    -202.411      -1.175
  C      180.178    -200.411      -1.293
  O      180.069    -199.001      -1.217
  C      180.251    -200.976      -2.711
  O      180.981    -200.134      -3.604
  C      180.976    -202.311      -2.518
  N      179.442    -205.648      -6.019
  C      180.517    -204.782      -6.049
  N      181.145    -204.672      -7.242
  N      180.926    -204.097      -5.020
  C      180.133    -204.239      -3.928
  C      179.050    -205.075      -3.768
  C      178.645    -205.871      -4.902
  O      177.642    -206.579      -4.939
  N      178.459    -204.908      -2.544
  C      179.149    -203.945      -1.976
  N      180.153    -203.477      -2.796
  O      181.819    -200.234       3.611
  O      180.879    -202.523       3.988
  H      181.183    -200.653      -4.407
  H      180.135    -201.917       4.192
  H      179.130    -206.100      -6.869
  H      178.948    -203.527      -0.998
  H      181.848    -202.373      -3.175
  H      179.244    -201.080      -3.137
  H      180.772    -205.082      -8.093
  H      179.224    -200.775      -0.894
  H      181.829    -203.929      -7.355
  H      182.256    -200.642      -0.556
  H      180.662    -200.418       1.444
  H      179.889    -201.917       0.939
  P      178.719    -198.148      -1.310
  C      176.666    -197.960      -2.833
  O      177.905    -198.620      -2.604
  O      179.209    -196.675      -1.713
  O      177.924    -198.103      -0.043
  H      178.537    -196.021      -1.452
  H      176.071    -198.549      -3.525
  H      176.850    -196.974      -3.259
  H      176.106    -197.851      -1.890
  H      184.365    -203.908       4.632
  H      182.987    -204.373       3.664
  H      182.746    -203.649       5.236

 3  4  5  6  7  8  9  10  11  12  23  26  30  31 0
 6-311+G(2d,p)
 ****
 33  35  36  37  38 0
 6-311+G(2d,p)
 ****
 1  2  13  14  15  16  17  18  19  20  21  22  24  25 0
 3-21G
 ****
 27  28  29  32  34  39  40  41  42  43  44  45  46  47  48  49 0
 3-21G
 ****


