%nproc=1
%NoSave
%Mem=1900MB
#P OB98/GEN NMR

erre ene a

0 1
  C      216.985    -157.178     -98.525
  O      218.157    -156.716     -99.201
  P      219.157    -157.815     -99.820
  C      220.992    -157.546     -98.008
  O      220.053    -158.425     -98.629
  C      222.092    -158.340     -97.292
  O      221.484    -159.214     -96.310
  C      222.919    -159.258     -98.211
  O      224.083    -158.718     -98.839
  C      223.410    -160.309     -97.215
  O      224.585    -159.819     -96.528
  C      222.252    -160.445     -96.221
  N      221.988    -165.552     -96.167
  C      222.979    -164.686     -95.840
  N      222.970    -163.339     -95.879
  C      221.780    -162.892     -96.301
  C      220.672    -163.640     -96.686
  C      220.810    -165.047     -96.603
  N      219.804    -165.914     -96.951
  N      219.634    -162.823     -97.074
  C      220.111    -161.594     -96.956
  N      221.404    -161.578     -96.483
  O      219.911    -157.389    -101.034
  O      218.167    -159.029    -100.151
  H      224.362    -158.932     -96.199
  H      218.458    -159.451    -100.990
  H      223.910    -165.145     -95.495
  H      219.563    -160.691     -97.205
  H      222.602    -160.531     -95.189
  H      223.696    -161.242     -97.703
  H      222.283    -159.733     -98.963
  H      222.761    -157.648     -96.767
  H      220.468    -156.908     -97.284
  H      220.000    -166.901     -96.907
  H      218.939    -165.556     -97.322
  H      221.379    -156.883     -98.790
  P      224.138    -158.473    -100.419
  C      224.477    -160.964    -101.184
  O      223.613    -159.839    -101.085
  O      225.454    -157.988    -100.941
  O      222.923    -157.465    -100.654
  H      222.044    -157.859    -100.518
  H      223.880    -161.841    -101.455
  H      224.970    -161.162    -100.225
  H      225.231    -160.783    -101.958
  H      216.423    -156.339     -98.171
  H      217.270    -157.792     -97.696
  H      216.385    -157.749     -99.202

 3  4  5  6  7  8  9  10  11  12  22  25  29  30  31  32 0
 6-311+G(2d,p)
 ****
 33  36  37 0
 6-311+G(2d,p)
 ****
 1  2  13  14  15  16  17  18  19  20  21  23  24  26 0
 3-21G
 ****
 27  28  34  35  38  39  40  41  42  43  44  45  46  47  48 0
 3-21G
 ****


