%nproc=1
%NoSave
%Mem=1900MB
#P OB98/GEN NMR

erre ene a

0 1
  C     -474.639     216.564    -261.865
  O     -475.180     215.987    -263.032
  H     -473.939     215.857    -261.415
  H     -475.438     216.770    -261.147
  H     -474.103     217.486    -262.101
  P     -476.117     216.913    -263.950
  C     -477.973     215.294    -264.779
  O     -476.749     215.955    -265.076
  C     -478.311     214.283    -265.878
  O     -478.375     214.983    -267.149
  C     -477.288     213.156    -266.016
  O     -477.981     211.941    -266.305
  C     -476.454     213.564    -267.218
  O     -475.839     212.453    -267.870
  C     -477.493     214.313    -268.071
  N     -476.852     215.250    -268.993
  C     -476.269     214.698    -270.134
  O     -476.293     213.483    -270.322
  N     -475.612     215.534    -271.002
  C     -475.481     216.794    -270.719
  N     -474.793     217.562    -271.606
  C     -476.031     217.401    -269.486
  C     -476.701     216.580    -268.680
  O     -475.071     217.801    -264.772
  O     -477.116     217.744    -263.211
  H     -476.545     211.818    -268.128
  H     -475.438     218.685    -264.973
  H     -475.869     218.445    -269.280
  H     -477.137     216.933    -267.753
  H     -478.097     213.604    -268.648
  H     -475.663     214.252    -266.900
  H     -476.674     213.018    -265.119
  H     -479.316     213.882    -265.681
  H     -474.424     217.105    -272.431
  H     -478.772     216.041    -264.721
  H     -474.593     218.543    -271.461
  H     -477.884     214.792    -263.810
  P     -478.734     211.230    -265.075
  C     -478.436     208.931    -266.252
  O     -479.322     209.830    -265.602
  O     -480.030     212.140    -264.864
  O     -477.902     211.145    -263.837
  H     -479.945     212.654    -264.042
  H     -478.971     208.051    -266.543
  H     -477.645     208.663    -265.583
  H     -478.024     209.401    -267.120

 6  7  8  9  10  11  12  13  14  15  16  26  30  31  32  33  35 0
 6-311+G(2d,p)
 ****
 37  38 0
 6-311+G(2d,p)
 ****
 1  2  3  4  5  17  18  19  20  21  22  23  24  25 0
 3-21G
 ****
 27  28  29  34  36  39  40  41  42  43  44  45  46 0
 3-21G
 ****


