%nproc=1
%NoSave
%Mem=1900MB
#P OB98/GEN NMR

erre ene a

0 1
  C     -899.394     346.177    2172.021
  O     -898.014     345.862    2171.820
  P     -897.394     345.582    2170.356
  C     -895.074     346.784    2170.262
  O     -896.474     346.861    2169.985
  C     -894.654     347.861    2171.283
  O     -895.354     347.610    2172.546
  C     -893.194     347.873    2171.663
  O     -892.364     348.429    2170.631
  C     -893.214     348.714    2172.957
  O     -893.194     350.120    2172.659
  C     -894.564     348.308    2173.578
  N     -894.434     347.508    2174.781
  C     -894.154     348.191    2175.956
  O     -893.964     349.412    2175.967
  N     -894.104     347.480    2177.137
  C     -894.194     346.212    2177.107
  N     -894.144     345.509    2178.334
  C     -894.374     345.392    2175.850
  C     -894.474     346.118    2174.757
  O     -898.374     345.227    2169.310
  O     -896.324     344.393    2170.587
  H     -896.214     343.906    2169.734
  H     -893.454     350.579    2173.507
  H     -894.404     344.316    2175.868
  H     -894.594     345.627    2173.774
  H     -895.144     349.219    2173.812
  H     -892.324     348.495    2173.594
  H     -892.844     346.838    2171.884
  H     -894.964     348.860    2170.897
  H     -894.044     346.104    2179.155
  H     -894.504     346.957    2169.333
  H     -894.234     344.520    2178.390
  H     -894.824     345.771    2170.636
  P     -891.774     347.373    2169.566
  C     -892.444     348.744    2167.452
  O     -892.594     347.548    2168.168
  O     -892.244     345.925    2170.107
  O     -890.264     347.456    2169.401
  H     -891.514     345.269    2170.005
  H     -892.614     348.544    2166.385
  H     -891.424     349.180    2167.543
  H     -893.144     349.491    2167.789
  H     -899.579     346.322    2173.065
  H     -900.000     345.372    2171.660
  H     -899.637     347.073    2171.488

 3  4  5  6  7  8  9  10  11  12  13  24  27  28  29  30  32 0
 6-311+G(2d,p)
 ****
 34  35 0
 6-311+G(2d,p)
 ****
 1  2  14  15  16  17  18  19  20  21  22  23  25  26 0
 3-21G
 ****
 31  33  36  37  38  39  40  41  42  43  44  45  46 0
 3-21G
 ****


