%nproc=1
%NoSave
%Mem=1900MB
#P OB98/GEN NMR

erre ene a

0 1
  C      417.118    -847.459    1246.764
  O      416.020    -846.730    1247.328
  P      415.533    -846.914    1248.835
  C      416.443    -844.573    1249.472
  O      415.348    -845.483    1249.523
  C      416.055    -843.180    1249.962
  O      415.231    -842.516    1249.021
  C      415.279    -843.159    1251.282
  O      416.155    -843.416    1252.382
  C      414.685    -841.762    1251.253
  O      415.636    -840.775    1251.699
  C      414.391    -841.587    1249.726
  N      412.980    -841.780    1249.417
  C      412.114    -840.730    1249.729
  O      412.556    -839.722    1250.302
  N      410.782    -840.851    1249.405
  C      410.327    -841.955    1248.900
  N      409.007    -842.011    1248.588
  C      411.194    -843.131    1248.638
  C      412.500    -842.964    1248.918
  O      416.378    -847.860    1249.643
  O      414.018    -847.480    1248.724
  H      415.246    -839.904    1251.516
  H      413.839    -848.060    1249.487
  H      410.771    -844.060    1248.226
  H      413.191    -843.766    1248.736
  H      414.690    -840.579    1249.389
  H      413.800    -841.669    1251.876
  H      414.483    -843.913    1251.240
  H      417.000    -842.608    1250.069
  H      408.454    -841.198    1248.797
  H      416.782    -844.517    1248.414
  H      408.568    -842.822    1248.196
  H      417.266    -845.001    1250.068
  P      415.849    -844.656    1253.358
  C      418.173    -845.769    1253.354
  O      417.222    -845.008    1254.103
  O      415.156    -845.818    1252.722
  O      414.960    -844.006    1254.538
  H      414.364    -844.692    1254.865
  H      419.165    -845.621    1253.803
  H      418.194    -845.457    1252.310
  H      417.919    -846.834    1253.435
  H      417.254    -847.166    1245.744
  H      416.911    -848.508    1246.809
  H      418.009    -847.247    1247.318

 3  4  5  6  7  8  9  10  11  12  13  23  27  28  29  30  32 0
 6-311+G(2d,p)
 ****
 34  35 0
 6-311+G(2d,p)
 ****
 1  2  14  15  16  17  18  19  20  21  22  24  25  26 0
 3-21G
 ****
 31  33  36  37  38  39  40  41  42  43  44  45  46 0
 3-21G
 ****


