%nproc=1
%NoSave
%Mem=1900MB
#P OB98/GEN NMR

erre ene a

0 1
  C     -484.214     -77.311    -559.048
  O     -484.883     -76.068    -559.048
  H     -484.924     -78.084    -558.743
  H     -483.388     -77.302    -558.329
  H     -483.844     -77.552    -560.048
  P     -484.059     -74.739    -559.416
  C     -483.737     -74.115    -556.942
  O     -483.088     -74.470    -558.156
  C     -483.072     -74.780    -555.738
  O     -481.750     -74.210    -555.538
  C     -483.854     -74.612    -554.425
  O     -483.942     -75.872    -553.755
  C     -482.991     -73.660    -553.612
  O     -483.199     -73.781    -552.206
  C     -481.589     -74.041    -554.116
  N     -480.597     -73.035    -553.776
  C     -479.682     -73.376    -552.769
  O     -479.747     -74.478    -552.223
  N     -478.762     -72.442    -552.362
  C     -478.779     -71.256    -552.889
  N     -477.860     -70.366    -552.421
  C     -479.743     -70.836    -553.930
  C     -480.612     -71.764    -554.336
  O     -484.905     -73.569    -559.824
  O     -483.028     -75.188    -560.561
  H     -482.787     -74.614    -551.904
  H     -482.756     -74.400    -561.077
  H     -479.713     -69.833    -554.324
  H     -481.356     -71.557    -555.097
  H     -481.274     -75.007    -553.692
  H     -483.223     -72.627    -553.901
  H     -484.855     -74.218    -554.576
  H     -482.913     -75.840    -555.975
  H     -477.223     -70.689    -551.693
  H     -484.794     -74.407    -557.010
  H     -477.795     -69.407    -552.738
  H     -483.676     -73.022    -556.831
  P     -485.378     -76.602    -553.796
  C     -486.009     -75.274    -551.652
  O     -486.411     -75.714    -552.937
  O     -485.154     -77.915    -552.892
  O     -485.822     -76.955    -555.175
  H     -485.157     -78.706    -553.465
  H     -486.796     -74.700    -551.209
  H     -485.132     -74.668    -551.741
  H     -485.795     -76.122    -551.035

 6  7  8  9  10  11  12  13  14  15  16  26  30  31  32  33  35 0
 6-311+G(2d,p)
 ****
 37  38 0
 6-311+G(2d,p)
 ****
 1  2  3  4  5  17  18  19  20  21  22  23  24  25 0
 3-21G
 ****
 27  28  29  34  36  39  40  41  42  43  44  45  46 0
 3-21G
 ****


