%nproc=1
%NoSave
%Mem=1900MB
#P OB98/GEN NMR

erre ene a

0 1
  C     -896.930     135.203     449.992
  O     -896.920     135.252     451.406
  H     -896.420     134.293     449.674
  H     -896.400     136.069     449.582
  H     -897.950     135.176     449.606
  P     -897.850     136.322     452.152
  C     -896.190     138.278     451.871
  O     -897.470     137.759     451.538
  C     -896.110     139.766     451.500
  O     -897.130     140.495     452.274
  C     -894.740     140.415     451.799
  O     -894.470     141.411     450.794
  C     -895.000     141.066     453.140
  O     -894.080     142.080     453.433
  C     -896.440     141.558     452.940
  N     -897.060     141.915     454.220
  C     -897.210     143.278     454.495
  O     -896.820     144.171     453.738
  N     -897.740     143.571     455.715
  C     -898.030     142.675     456.716
  O     -898.430     143.031     457.812
  C     -897.800     141.266     456.377
  C     -897.350     140.955     455.172
  O     -897.840     136.268     453.652
  O     -899.320     136.071     451.546
  H     -894.210     142.412     454.347
  H     -900.000     136.428     452.144
  H     -897.860     144.564     455.935
  H     -898.020     140.522     457.139
  H     -897.170     139.920     454.883
  H     -896.470     142.446     452.277
  H     -894.950     140.327     453.947
  H     -893.930     139.686     451.829
  H     -896.380     139.879     450.444
  H     -895.430     137.714     451.316
  H     -896.020     138.152     452.953
  P     -893.480     141.124     449.564
  C     -891.340     142.065     450.625
  O     -891.970     140.895     450.083
  O     -893.600     142.106     448.442
  O     -893.920     139.658     449.048
  H     -893.990     139.670     448.076
  H     -890.348     141.821     450.942
  H     -891.905     142.419     451.462
  H     -891.298     142.827     449.875

 6  7  8  9  10  11  12  13  14  15  16  26  31  32  33  34  35 0
 6-311+G(2d,p)
 ****
 36  37 0
 6-311+G(2d,p)
 ****
 1  2  3  4  5  17  18  19  20  21  22  23  24  25 0
 3-21G
 ****
 27  28  29  30  38  39  40  41  42  43  44  45 0
 3-21G
 ****


