%nproc=1
%NoSave
%Mem=1900MB
#P OB98/GEN NMR

erre ene a

0 1
  C     -525.022      33.847    -898.470
  O     -524.474      34.784    -897.570
  H     -525.389      34.379    -899.360
  H     -525.863      33.324    -898.000
  H     -524.264      33.120    -898.790
  P     -523.878      34.205    -896.200
  C     -521.490      35.201    -896.370
  O     -522.297      34.037    -896.430
  C     -520.060      34.847    -895.930
  O     -520.113      34.192    -894.620
  C     -519.339      33.898    -896.900
  O     -517.955      34.269    -896.960
  C     -519.446      32.549    -896.210
  O     -518.425      31.645    -896.630
  C     -519.350      32.986    -894.740
  N     -518.384      28.377    -892.930
  C     -517.650      29.164    -893.790
  N     -516.481      28.672    -894.260
  N     -518.037      30.353    -894.170
  C     -519.208      30.750    -893.620
  C     -520.023      30.062    -892.770
  C     -519.604      28.729    -892.360
  O     -520.211      27.975    -891.610
  N     -521.139      30.783    -892.440
  C     -521.012      31.918    -893.120
  N     -519.850      31.944    -893.840
  O     -524.408      32.696    -896.170
  O     -524.256      34.965    -894.970
  H     -517.579      32.149    -896.660
  H     -524.542      32.389    -895.250
  H     -518.048      27.462    -892.660
  H     -521.714      32.751    -893.120
  H     -518.316      33.194    -894.430
  H     -520.421      32.090    -896.410
  H     -516.113      27.771    -893.970
  H     -519.768      33.888    -897.900
  H     -515.934      29.236    -894.880
  H     -519.496      35.769    -895.780
  H     -521.934      35.896    -895.640
  H     -521.459      35.684    -897.350
  P     -517.498      35.199    -898.200
  C     -516.691      37.274    -896.840
  O     -517.642      36.746    -897.760
  O     -518.682      34.999    -899.250
  O     -516.174      34.825    -898.770
  H     -518.353      34.468    -900.000
  H     -516.915      38.302    -896.646
  H     -515.709      37.195    -897.258
  H     -516.735      36.721    -895.925

 6  7  8  9  10  11  12  13  14  15  26  29  33  34 0
 6-311+G(2d,p)
 ****
 36  38  39  40  41 0
 6-311+G(2d,p)
 ****
 1  2  3  4  5  16  17  18  19  20  21  22  23  24  25 0
 3-21G
 ****
 27  28  30  31  32  35  37  42  43  44  45  46  47 0
 3-21G
 ****
 48  49 0
 3-21G
 ****


