%nproc=1
%NoSave
%Mem=1900MB
#P OB98/GEN NMR

erre ene a

0 1
  C      642.336    -232.195      35.878
  O      643.099    -233.177      35.206
  H      642.307    -231.293      35.262
  H      642.807    -231.953      36.834
  H      641.312    -232.538      36.041
  P      643.065    -234.686      35.739
  C      641.691    -236.798      35.184
  O      641.807    -235.390      35.028
  C      640.618    -237.362      34.248
  O      639.374    -236.635      34.469
  C      640.962    -237.242      32.755
  O      640.348    -238.348      32.081
  C      640.267    -235.945      32.383
  O      640.103    -235.825      30.986
  C      638.980    -236.065      33.205
  N      638.298    -234.780      33.365
  C      637.143    -234.594      32.612
  O      636.715    -235.426      31.816
  N      636.519    -233.388      32.766
  C      636.961    -232.350      33.538
  O      636.375    -231.278      33.611
  C      638.211    -232.590      34.281
  C      638.811    -233.779      34.163
  O      643.117    -234.850      37.221
  O      644.307    -235.390      35.016
  H      639.620    -234.999      30.770
  H      644.666    -236.101      35.583
  H      635.676    -233.234      32.233
  H      638.594    -231.787      34.891
  H      639.729    -233.990      34.698
  H      638.279    -236.760      32.728
  H      640.853    -235.083      32.719
  H      642.037    -237.223      32.562
  H      640.426    -238.408      34.526
  H      641.426    -237.005      36.225
  H      642.659    -237.269      34.966
  P      640.987    -239.820      32.099
  C      642.180    -241.080      34.003
  O      641.015    -240.351      33.611
  O      642.293    -239.925      31.383
  O      639.884    -240.752      31.400
  H      640.319    -241.513      30.974
  H      642.085    -241.381      35.025
  H      643.044    -240.458      33.893
  H      642.283    -241.947      33.384

 6  7  8  9  10  11  12  13  14  15  16  26  31  32  33  34  35 0
 6-311+G(2d,p)
 ****
 36  37 0
 6-311+G(2d,p)
 ****
 1  2  3  4  5  17  18  19  20  21  22  23  24  25 0
 3-21G
 ****
 27  28  29  30  38  39  40  41  42  43  44  45 0
 3-21G
 ****


