%nproc=1
%NoSave
%Mem=1900MB
#P OB98/GEN NMR

erre ene a

0 1
  C      179.964     189.312     243.984
  O      179.923     190.620     244.536
  P      180.865     190.921     245.802
  C      179.520     193.068     246.368
  O      179.968     191.791     246.809
  C      178.052     193.274     246.724
  O      177.236     192.355     245.976
  C      177.717     193.024     248.187
  O      178.039     194.136     249.002
  C      176.208     192.814     248.108
  O      175.547     194.093     248.075
  C      176.048     192.086     246.764
  N      172.878     188.182     246.184
  C      172.682     189.522     245.923
  N      171.483     189.873     245.412
  N      173.584     190.446     246.145
  C      174.749     189.947     246.622
  C      175.062     188.637     246.921
  C      174.036     187.635     246.715
  O      174.130     186.440     246.988
  N      176.352     188.522     247.370
  C      176.833     189.747     247.307
  N      175.887     190.655     246.889
  O      181.914     191.987     245.229
  O      181.549     189.730     246.382
  H      175.492     194.409     248.996
  H      182.743     191.953     245.744
  H      172.156     187.514     245.972
  H      177.848     190.021     247.554
  H      175.194     192.485     246.197
  H      175.810     192.269     248.967
  H      170.802     189.198     245.093
  H      178.196     192.105     248.552
  H      171.336     190.845     245.179
  H      177.770     194.294     246.434
  H      179.634     193.137     245.281
  H      180.143     193.839     246.833
  P      178.667     193.813     250.449
  C      177.984     196.257     251.019
  O      178.032     194.905     251.437
  O      180.193     194.268     250.294
  O      178.536     192.385     250.869
  H      180.755     193.770     250.921
  H      177.783     196.333     249.944
  H      178.937     196.741     251.245
  H      177.185     196.765     251.563
  H      179.292     189.254     243.153
  H      179.672     188.601     244.729
  H      180.959     189.095     243.654

 3  4  5  6  7  8  9  10  11  12  23  26  30  31  33  0
 6-311+G(2d,p)
 ****
 35  36  37  38 0
 6-311+G(2d,p)
 ****
 1  2  13  14  15  16  17  18  19  20  21  22  24  25  27  28  29 0
 3-21G
 ****
 32  34  39  40  41  42  43  44  45  46  47  48  49 0
 3-21G
 ****


