%nproc=1
%NoSave
%Mem=1900MB
#P OB98/GEN NMR

erre ene a

0 1
  C      145.798     -75.720     140.867
  O      145.186     -74.943     139.857
  H      146.797     -76.010     140.530
  H      145.214     -76.625     141.057
  H      145.889     -75.138     141.787
  P      143.663     -74.505     140.121
  C      142.805     -76.089     138.233
  O      142.816     -75.775     139.618
  C      141.447     -76.668     137.848
  O      141.184     -77.884     138.581
  C      140.270     -75.748     138.151
  O      140.112     -74.716     137.191
  C      139.126     -76.744     138.104
  O      138.821     -77.064     136.735
  C      139.754     -77.955     138.831
  N      139.486     -77.965     140.270
  C      138.196     -78.340     140.666
  O      137.345     -78.634     139.827
  N      137.890     -78.344     142.005
  C      138.791     -78.013     142.876
  N      138.429     -78.020     144.188
  C      140.165     -77.627     142.505
  C      140.439     -77.624     141.203
  O      143.378     -73.421     138.978
  O      143.344     -74.041     141.503
  H      137.967     -77.532     136.737
  H      142.420     -73.180     138.977
  H      140.879     -77.348     143.267
  H      141.429     -77.348     140.855
  H      139.396     -78.899     138.402
  H      138.209     -76.365     138.559
  H      140.333     -75.333     139.164
  H      141.483     -76.931     136.781
  H      137.463     -78.228     144.407
  H      143.596     -76.821     138.040
  H      139.001     -77.608     144.914
  H      142.997     -75.189     137.641
  P      139.857     -73.226     137.734
  C      137.308     -73.613     137.416
  O      138.349     -73.178     138.280
  O      139.788     -72.360     136.391
  O      140.897     -72.711     138.680
  H      140.221     -71.493     136.507
  H      136.367     -73.522     137.917
  H      137.472     -74.636     137.147
  H      137.301     -73.009     136.533

 6  7  8  9  10  11  12  13  14  15  16  26  30  31  32  33  35 0
 6-311+G(2d,p)
 ****
 37  38 0
 6-311+G(2d,p)
 ****
 1  2  3  4  5  17  18  19  20  21  22  23  24  25 0
 3-21G
 ****
 27  28  29  34  36  39  40  41  42  43  44  45  46 0
 3-21G
 ****


