%nproc=1
%NoSave
%Mem=1900MB
#P OB98/GEN NMR

erre ene a

0 1
  C       39.629    -849.685    -341.170
  O       39.513    -850.717    -340.186
  P       39.111    -850.420    -338.660
  C       36.982    -850.274    -337.208
  O       37.514    -850.418    -338.520
  C       35.511    -850.692    -337.141
  O       34.700    -849.846    -337.979
  C       35.230    -852.117    -337.608
  O       35.621    -853.062    -336.631
  C       33.727    -852.048    -337.873
  O       32.978    -852.216    -336.653
  C       33.563    -850.613    -338.422
  N       33.430    -850.586    -339.868
  C       32.129    -850.746    -340.378
  O       31.183    -850.954    -339.624
  N       31.945    -850.683    -341.740
  C       32.977    -850.554    -342.522
  N       32.737    -850.495    -343.860
  C       34.373    -850.474    -342.034
  C       34.513    -850.499    -340.711
  O       39.775    -849.210    -338.076
  O       39.549    -851.738    -337.853
  H       32.102    -851.812    -336.808
  H       39.804    -851.487    -336.945
  H       35.193    -850.398    -342.720
  H       35.503    -850.436    -340.268
  H       32.685    -850.132    -337.972
  H       33.387    -852.822    -338.569
  H       35.758    -852.305    -338.552
  H       35.170    -850.556    -336.101
  H       31.768    -850.548    -344.169
  H       37.070    -849.218    -336.913
  H       33.456    -850.396    -344.554
  H       37.582    -850.878    -336.514
  P       36.891    -853.999    -336.892
  C       39.325    -854.143    -336.069
  O       38.120    -853.394    -336.066
  O       37.180    -854.311    -338.324
  O       36.551    -855.347    -336.077
  H       36.953    -856.106    -336.538
  H       40.154    -853.481    -335.848
  H       39.492    -854.600    -337.052
  H       39.267    -854.923    -335.306
  H       39.906    -850.117    -342.109
  H       40.378    -848.984    -340.865
  H       38.690    -849.182    -341.272

 3  4  5  6  7  8  9  10  11  12  13  23  27  28  29  30  32 0
 6-311+G(2d,p)
 ****
 34  35 0
 6-311+G(2d,p)
 ****
 1  2  14  15  16  17  18  19  20  21  22  24  25  26 0
 3-21G
 ****
 31  33  36  37  38  39  40  41  42  43  44  45  46 0
 3-21G
 ****


