%nproc=1
%NoSave
%Mem=1900MB
#P OB98/GEN NMR

erre ene a

0 1
  C     -164.923     171.571     395.906
  O     -164.457     171.499     394.573
  H     -164.077     171.789     396.562
  H     -165.368     170.618     396.208
  H     -165.661     172.373     396.001
  P     -165.540     171.128     393.451
  C     -165.326     168.611     393.970
  O     -166.186     169.746     393.957
  C     -166.145     167.322     394.012
  O     -165.239     166.197     393.867
  C     -166.917     167.128     395.322
  O     -168.166     166.494     395.040
  C     -166.034     166.170     396.105
  O     -166.762     165.453     397.099
  C     -165.462     165.310     394.979
  N     -163.517     161.055     396.993
  C     -164.755     161.362     396.547
  N     -165.184     162.520     396.002
  C     -164.163     163.393     395.882
  C     -162.853     163.225     396.289
  C     -162.538     161.985     396.880
  N     -161.291     161.676     397.368
  N     -162.120     164.366     396.035
  C     -162.971     165.208     395.477
  N     -164.226     164.669     395.383
  O     -165.037     171.117     392.046
  O     -166.705     172.182     393.755
  H     -167.553     165.054     396.676
  H     -166.908     172.228     394.708
  H     -165.502     160.578     396.653
  H     -162.733     166.213     395.145
  H     -166.153     164.516     394.662
  H     -165.238     166.727     396.611
  H     -167.088     168.061     395.861
  H     -166.817     167.300     393.146
  H     -164.662     168.653     394.840
  H     -161.154     160.764     397.776
  H     -160.546     162.354     397.289
  H     -164.711     168.646     393.062
  P     -169.493     167.391     394.944
  C     -170.291     167.069     397.375
  O     -169.815     167.988     396.402
  O     -170.653     166.758     394.252
  O     -168.985     168.688     394.147
  H     -169.665     168.947     393.494
  H     -170.467     167.584     398.296
  H     -169.561     166.302     397.529
  H     -171.204     166.628     397.033

 6  7  8  9  10  11  12  13  14  15  25  28  32  33  34  35 0
 6-311+G(2d,p)
 ****
 36  39  40 0
 6-311+G(2d,p)
 ****
 1  2  3  4  5  16  17  18  19  20  21  22  23  24 0
 3-21G
 ****
 26  27  29  30  31  37  38  41  42  43  44  45  46  47 0
 3-21G
 ****
 48 0
 3-21G
 ****


