%nproc=1
%NoSave
%Mem=1900MB
#P OB98/GEN NMR

erre ene a

0 1
  C      146.509     205.149     431.631
  O      146.873     205.063     433.022
  P      148.402     205.114     433.497
  C      149.711     206.467     435.287
  O      148.475     205.831     434.938
  C      149.548     207.417     436.459
  O      148.777     208.587     436.089
  C      148.828     206.814     437.678
  O      149.717     205.993     438.421
  C      148.367     208.076     438.401
  O      149.433     208.629     439.179
  C      148.012     209.007     437.228
  N      143.605     211.598     437.687
  C      144.888     211.880     438.086
  N      145.993     211.145     437.931
  C      145.710     209.991     437.274
  C      144.480     209.570     436.789
  C      143.389     210.428     437.037
  N      142.094     210.136     436.635
  N      144.585     208.336     436.178
  C      145.875     208.026     436.258
  N      146.596     209.003     436.909
  O      149.352     205.699     432.489
  O      148.790     203.593     433.819
  H      149.108     209.439     439.604
  H      149.753     203.454     433.697
  H      145.006     212.836     438.594
  H      146.311     207.119     435.875
  H      148.302     210.044     437.443
  H      147.530     207.878     439.084
  H      147.949     206.243     437.338
  H      150.554     207.774     436.752
  H      150.065     207.026     434.396
  H      141.368     210.784     436.869
  H      141.905     209.244     436.191
  H      150.453     205.684     435.513
  P      149.402     204.423     438.596
  C      150.405     202.485     439.947
  O      150.295     203.895     439.807
  O      149.480     203.604     437.344
  O      147.909     204.411     439.215
  H      147.461     203.589     438.929
  H      149.498     202.094     440.435
  H      151.270     202.250     440.577
  H      150.528     202.004     438.970
  H      145.444     205.095     431.537
  H      146.956     204.338     431.095
  H      146.856     206.077     431.228

 3  4  5  6  7  8  9  10  11  12  22  25  29  30  31  32 0
 6-311+G(2d,p)
 ****
 33  36  37 0
 6-311+G(2d,p)
 ****
 1  2  13  14  15  16  17  18  19  20  21  23  24  26 0
 3-21G
 ****
 27  28  34  35  38  39  40  41  42  43  44  45  46  47  48 0
 3-21G
 ****


