%nproc=1
%NoSave
%Mem=1900MB
#P OB98/GEN NMR

erre ene a

0 1
  C       98.695     -28.743     418.491
  O       99.821     -29.148     419.280
  P      100.892     -30.222     418.752
  C      102.851     -28.548     418.849
  O      102.093     -29.436     418.030
  C      104.188     -29.166     419.269
  O      105.025     -29.404     418.117
  C      105.015     -28.301     420.214
  O      104.519     -28.397     421.539
  C      106.411     -28.880     420.006
  O      106.579     -30.079     420.778
  C      106.398     -29.206     418.506
  N      110.762     -27.602     416.375
  C      110.463     -28.700     417.104
  N      109.275     -29.055     417.644
  C      108.330     -28.149     417.341
  C      108.485     -26.980     416.607
  C      109.773     -26.714     416.112
  N      110.080     -25.589     415.384
  N      107.295     -26.289     416.526
  C      106.430     -27.040     417.181
  N      107.006     -28.170     417.691
  O      100.304     -31.324     417.935
  O      101.575     -30.803     420.078
  H      107.513     -30.344     420.708
  H      101.885     -31.713     419.918
  H      111.286     -29.386     417.278
  H      105.381     -26.806     417.313
  H      106.922     -30.143     418.293
  H      107.205     -28.185     420.301
  H      105.000     -27.256     419.878
  H      103.977     -30.139     419.725
  H      102.258     -28.312     419.742
  H      111.035     -25.453     415.091
  H      109.362     -24.897     415.224
  H      103.026     -27.624     418.287
  P      104.673     -27.161     422.545
  C      102.200     -26.559     422.866
  O      103.432     -26.181     422.281
  O      106.011     -26.504     422.559
  O      104.321     -27.792     423.975
  H      104.807     -27.310     424.670
  H      101.723     -27.326     422.251
  H      101.548     -25.682     422.909
  H      102.346     -26.942     423.880
  H       98.118     -28.025     419.035
  H       98.088     -29.596     418.272
  H       99.039     -28.306     417.577

 3  4  5  6  7  8  9  10  11  12  22  25  29  30  31  32 0
 6-311+G(2d,p)
 ****
 33  36  37 0
 6-311+G(2d,p)
 ****
 1  2  13  14  15  16  17  18  19  20  21  23  24  26 0
 3-21G
 ****
 27  28  34  35  38  39  40  41  42  43  44  45  46  47  48 0
 3-21G
 ****


