%nproc=1
%NoSave
%Mem=1900MB
#P OB98/GEN NMR

erre ene a

0 1
  C      -53.211     127.736    -134.141
  O      -53.645     126.539    -134.757
  H      -52.846     128.415    -134.918
  H      -52.392     127.528    -133.447
  H      -54.035     128.221    -133.610
  P      -54.372     125.425    -133.856
  C      -53.783     124.151    -131.689
  O      -53.294     124.915    -132.783
  C      -52.612     123.657    -130.835
  O      -51.897     122.610    -131.529
  C      -51.579     124.734    -130.529
  O      -52.037     125.613    -129.522
  C      -50.383     123.880    -130.134
  O      -50.498     123.436    -128.774
  C      -50.513     122.691    -131.117
  N      -49.624     122.808    -132.274
  C      -48.257     122.702    -132.018
  O      -47.789     122.552    -130.887
  N      -47.438     122.806    -133.112
  C      -47.830     123.114    -134.382
  O      -47.048     123.283    -135.312
  C      -49.282     123.240    -134.591
  C      -50.099     123.082    -133.542
  O      -55.077     124.346    -134.605
  O      -55.391     126.275    -132.957
  H      -50.607     124.241    -128.233
  H      -56.299     126.154    -133.295
  H      -46.445     122.744    -132.947
  H      -49.634     123.469    -135.587
  H      -51.171     123.176    -133.673
  H      -50.286     121.747    -130.601
  H      -49.442     124.420    -130.221
  H      -51.330     125.289    -131.444
  H      -53.022     123.228    -129.907
  H      -54.337     123.287    -132.079
  H      -54.462     124.770    -131.096
  P      -51.975     127.197    -129.755
  C      -50.170     129.013    -130.015
  O      -50.429     127.621    -129.822
  O      -52.814     128.013    -128.822
  O      -52.470     127.382    -131.265
  H      -53.276     127.934    -131.281
  H      -49.113     129.179    -130.044
  H      -50.597     129.570    -129.207
  H      -50.606     129.332    -130.938

 6  7  8  9  10  11  12  13  14  15  16  26  31  32  33  34  35 0
 6-311+G(2d,p)
 ****
 36  37 0
 6-311+G(2d,p)
 ****
 1  2  3  4  5  17  18  19  20  21  22  23  24  25 0
 3-21G
 ****
 27  28  29  30  38  39  40  41  42  43  44  45 0
 3-21G
 ****


