%nproc=1
%NoSave
%Mem=1900MB
#P OB98/GEN NMR

erre ene a

0 1
  C      -76.731     399.257    -419.550
  O      -76.844     397.851    -419.416
  H      -77.184     399.728    -418.676
  H      -77.259     399.591    -420.447
  H      -75.678     399.545    -419.604
  P      -76.212     396.968    -420.597
  C      -73.826     396.847    -419.597
  O      -74.662     397.382    -420.614
  C      -72.383     396.743    -420.089
  O      -72.317     395.995    -421.317
  C      -71.728     398.088    -420.390
  O      -71.264     398.701    -419.200
  C      -70.580     397.650    -421.286
  O      -69.501     397.136    -420.476
  C      -71.208     396.507    -422.106
  N      -70.088     396.830    -427.103
  C      -69.318     396.563    -426.028
  N      -69.676     396.537    -424.724
  C      -70.979     396.823    -424.580
  C      -71.889     397.117    -425.587
  C      -71.400     397.101    -426.904
  N      -72.193     397.367    -428.002
  N      -73.139     397.357    -425.062
  C      -72.999     397.167    -423.760
  N      -71.703     396.874    -423.419
  O      -76.929     397.024    -421.901
  O      -76.169     395.520    -419.906
  H      -69.861     396.417    -419.929
  H      -75.922     395.598    -418.967
  H      -68.276     396.340    -426.237
  H      -73.802     397.205    -423.038
  H      -70.504     395.682    -422.254
  H      -70.173     398.477    -421.870
  H      -72.395     398.741    -420.957
  H      -71.811     396.187    -419.336
  H      -74.185     395.856    -419.293
  H      -71.728     397.504    -428.886
  H      -73.135     397.687    -427.839
  H      -73.885     397.512    -418.737
  P      -71.303     400.295    -419.031
  C      -73.758     400.533    -418.299
  O      -72.814     400.750    -419.342
  O      -70.268     401.039    -419.801
  O      -71.169     400.540    -417.458
  H      -70.617     401.325    -417.284
  H      -74.723     400.871    -418.615
  H      -73.458     401.076    -417.427
  H      -73.803     399.489    -418.071

 6  7  8  9  10  11  12  13  14  15  25  28  32  33  34  35 0
 6-311+G(2d,p)
 ****
 36  39  40 0
 6-311+G(2d,p)
 ****
 1  2  3  4  5  16  17  18  19  20  21  22  23  24 0
 3-21G
 ****
 26  27  29  30  31  37  38  41  42  43  44  45  46  47 0
 3-21G
 ****
 48 0
 3-21G
 ****


