%nproc=1
%NoSave
%Mem=1900MB
#P OB98/GEN NMR

erre ene a

0 1
  C      423.446      -6.395    -255.160
  O      422.221      -5.974    -254.597
  H      423.244      -7.165    -255.914
  H      424.096      -6.820    -254.390
  H      423.947      -5.553    -255.645
  P      422.303      -4.917    -253.393
  C      421.202      -6.395    -251.556
  O      422.388      -5.763    -252.035
  C      420.939      -5.965    -250.116
  O      422.086      -6.293    -249.290
  C      420.731      -4.464    -249.941
  O      419.424      -4.048    -250.301
  C      420.995      -4.312    -248.451
  O      419.827      -4.595    -247.672
  C      422.106      -5.349    -248.199
  N      423.417      -4.720    -248.042
  C      423.715      -4.263    -246.759
  O      422.946      -4.376    -245.804
  N      424.921      -3.632    -246.620
  C      425.812      -3.378    -247.619
  O      426.853      -2.756    -247.438
  C      425.434      -3.862    -248.959
  C      424.265      -4.502    -249.109
  O      420.830      -4.287    -253.361
  O      423.355      -3.870    -253.546
  H      420.853      -3.381    -253.722
  H      419.971      -4.169    -246.803
  H      425.162      -3.300    -245.695
  H      426.121      -3.674    -249.774
  H      423.962      -4.861    -250.081
  H      421.890      -5.922    -247.284
  H      421.303      -3.296    -248.214
  H      421.494      -3.910    -250.500
  H      420.071      -6.522    -249.737
  H      421.329      -7.484    -251.587
  H      420.367      -6.122    -252.204
  P      419.247      -2.554    -250.868
  C      419.054      -1.257    -248.584
  O      419.829      -1.587    -249.734
  O      417.656      -2.393    -250.774
  O      419.827      -2.375    -252.236
  H      417.275      -2.952    -250.072
  H      419.616      -0.604    -247.950
  H      418.811      -2.151    -248.049
  H      418.152      -0.769    -248.890

 6  7  8  9  10  11  12  13  14  15  16  27  31  32  33  34  35 0
 6-311+G(2d,p)
 ****
 36  37 0
 6-311+G(2d,p)
 ****
 1  2  3  4  5  17  18  19  20  21  22  23  24  25 0
 3-21G
 ****
 26  28  29  30  38  39  40  41  42  43  44  45 0
 3-21G
 ****


