%nproc=1
%NoSave
%Mem=1900MB
#P OB98/GEN NMR

erre ene a

0 1
  C      353.105    -878.345     766.940
  O      352.363    -879.233     767.735
  H      352.705    -878.364     765.921
  H      354.155    -878.666     766.905
  H      353.040    -877.333     767.329
  P      352.730    -879.296     769.304
  C      354.840    -880.791     769.072
  O      354.324    -879.498     769.379
  C      356.085    -881.085     769.913
  O      357.189    -880.269     769.430
  C      355.913    -880.791     771.424
  O      356.662    -881.767     772.150
  C      356.602    -879.442     771.575
  O      357.011    -879.185     772.923
  C      357.750    -879.618     770.582
  N      361.976    -876.896     770.986
  C      361.690    -878.195     771.403
  N      362.693    -878.840     772.034
  N      360.539    -878.757     771.225
  C      359.642    -877.991     770.558
  C      359.792    -876.708     770.087
  C      361.077    -876.065     770.321
  O      361.384    -874.919     769.983
  N      358.656    -876.264     769.486
  C      357.804    -877.273     769.591
  N      358.357    -878.342     770.231
  O      352.144    -880.723     769.743
  O      352.184    -878.187     770.135
  H      357.696    -879.842     773.160
  H      351.235    -880.623     770.093
  H      362.878    -876.495     771.156
  H      356.783    -877.271     769.218
  H      358.553    -880.250     770.979
  H      355.923    -878.647     771.253
  H      363.619    -878.476     772.167
  H      354.876    -880.789     771.759
  H      362.512    -879.807     772.309
  H      356.366    -882.135     769.753
  H      355.118    -880.821     768.005
  H      354.072    -881.550     769.269
  P      355.907    -883.109     772.619
  C      355.215    -882.079     774.915
  O      354.800    -882.695     773.698
  O      357.026    -883.837     773.507
  O      355.449    -883.970     771.492
  H      356.876    -884.799     773.500
  H      354.357    -881.869     775.519
  H      355.729    -881.167     774.696
  H      355.870    -882.739     775.444

 6  7  8  9  10  11  12  13  14  15  26  29  33  34 0
 6-311+G(2d,p)
 ****
 36  38  39  40  41 0
 6-311+G(2d,p)
 ****
 1  2  3  4  5  16  17  18  19  20  21  22  23  24  25 0
 3-21G
 ****
 27  28  30  31  32  35  37  42  43  44  45  46  47 0
 3-21G
 ****
 48  49 0
 3-21G
 ****


