%nproc=1
%NoSave
%Mem=1900MB
#P OB98/GEN NMR

erre ene a

0 1
  C     -511.003     181.078    -676.389
  O     -509.701     180.500    -676.405
  P     -509.069     180.201    -677.848
  C     -507.005     181.758    -677.594
  O     -508.223     181.496    -678.287
  C     -506.434     183.115    -678.021
  O     -507.416     184.161    -677.997
  C     -505.300     183.595    -677.126
  O     -504.085     182.934    -677.481
  C     -505.273     185.086    -677.427
  O     -504.509     185.367    -678.619
  C     -506.759     185.413    -677.666
  N     -507.091     189.549    -674.749
  C     -506.173     189.226    -675.733
  N     -505.225     190.150    -675.995
  N     -506.189     188.104    -676.395
  C     -507.193     187.276    -676.035
  C     -508.180     187.497    -675.098
  C     -508.149     188.746    -674.365
  O     -508.948     189.080    -673.498
  N     -509.065     186.447    -675.041
  C     -508.539     185.542    -675.859
  N     -507.446     186.022    -676.530
  O     -510.345     180.224    -678.824
  O     -508.345     178.903    -677.925
  H     -503.676     184.868    -678.586
  H     -510.532     179.328    -679.139
  H     -507.022     190.418    -674.265
  H     -508.928     184.553    -676.016
  H     -506.903     186.087    -678.504
  H     -504.812     185.656    -676.617
  H     -505.156     191.036    -675.521
  H     -505.542     183.427    -676.076
  H     -504.545     189.934    -676.719
  H     -506.068     183.009    -679.055
  H     -506.273     180.973    -677.803
  H     -507.201     181.744    -676.521
  P     -503.585     181.737    -676.543
  C     -503.834     179.878    -678.335
  O     -504.251     180.390    -677.083
  O     -504.347     182.023    -675.159
  O     -502.107     181.688    -676.342
  H     -503.725     181.902    -674.417
  H     -503.952     178.789    -678.321
  H     -502.797     180.129    -678.544
  H     -504.470     180.292    -679.122
  H     -511.314     181.229    -675.376
  H     -511.691     180.421    -676.879
  H     -510.982     182.018    -676.900

 3  4  5  6  7  8  9  10  11  12  23  26  30  31 0
 6-311+G(2d,p)
 ****
 33  35  36  37  38 0
 6-311+G(2d,p)
 ****
 1  2  13  14  15  16  17  18  19  20  21  22  24  25 0
 3-21G
 ****
 27  28  29  32  34  39  40  41  42  43  44  45  46  47  48  49 0
 3-21G
 ****


