%nproc=1
%NoSave
%Mem=1900MB
#P OB98/GEN NMR

erre ene a

0 1
  C      335.148     407.421     881.691
  O      335.267     408.109     880.434
  P      334.941     407.407     879.029
  C      337.097     406.072     878.524
  O      335.745     406.004     878.964
  C      337.810     404.734     878.666
  O      337.795     404.274     880.051
  C      337.193     403.600     877.840
  O      337.573     403.685     876.501
  C      337.726     402.360     878.580
  O      339.081     402.066     878.181
  C      337.696     402.839     880.072
  N      335.895     399.618     883.605
  C      337.160     399.841     883.139
  N      337.541     400.704     882.180
  C      336.497     401.417     881.729
  C      335.183     401.323     882.112
  C      334.890     400.362     883.117
  N      333.613     400.129     883.589
  N      334.376     402.200     881.427
  C      335.229     402.847     880.630
  N      336.520     402.407     880.780
  O      335.155     408.275     877.845
  O      333.411     406.947     879.150
  H      339.599     402.875     878.315
  H      333.017     406.922     878.267
  H      337.935     399.218     883.575
  H      334.943     403.627     879.928
  H      338.579     402.468     880.622
  H      337.120     401.473     878.405
  H      336.102     403.617     877.934
  H      338.856     404.860     878.382
  H      337.635     406.826     879.133
  H      333.476     399.418     884.283
  H      332.837     400.643     883.181
  H      337.126     406.396     877.483
  P      336.702     404.522     875.455
  C      335.230     402.600     874.576
  O      335.271     403.796     875.360
  O      337.351     404.832     874.149
  O      336.339     405.864     876.268
  H      336.235     406.610     875.633
  H      335.186     402.850     873.510
  H      334.345     402.051     874.864
  H      336.099     401.974     874.785
  H      335.415     408.084     882.487
  H      335.802     406.574     881.697
  H      334.138     407.093     881.824

 3  4  5  6  7  8  9  10  11  12  22  25  29  30  31  32 0
 6-311+G(2d,p)
 ****
 33  36  37 0
 6-311+G(2d,p)
 ****
 1  2  13  14  15  16  17  18  19  20  21  23  24  26 0
 3-21G
 ****
 27  28  34  35  38  39  40  41  42  43  44  45  46  47  48 0
 3-21G
 ****


