%nproc=1
%NoSave
%Mem=1900MB
#P OB98/GEN NMR

erre ene a

0 1
  C      682.071     272.143     481.889
  O      681.639     272.202     483.233
  H      683.107     271.795     481.862
  H      682.020     273.144     481.449
  H      681.449     271.449     481.308
  P      680.062     272.297     483.500
  C      680.179     269.941     484.592
  O      679.526     270.788     483.651
  C      679.530     268.557     484.597
  O      678.140     268.696     485.033
  C      679.522     267.853     483.225
  O      679.731     266.446     483.430
  C      678.101     268.068     482.749
  O      677.698     267.095     481.790
  C      677.342     267.986     484.070
  N      672.652     267.579     485.820
  C      673.829     267.006     486.262
  N      673.732     266.147     487.304
  N      674.991     267.251     485.732
  C      674.947     268.153     484.714
  C      673.844     268.784     484.176
  C      672.559     268.482     484.758
  O      671.475     268.942     484.394
  N      674.208     269.573     483.107
  C      675.511     269.396     482.997
  N      676.007     268.548     483.947
  O      679.495     272.757     482.074
  O      679.653     273.230     484.584
  H      678.174     267.272     480.951
  H      679.395     273.728     482.054
  H      671.769     267.332     486.248
  H      676.140     269.848     482.236
  H      677.216     266.952     484.418
  H      677.997     269.070     482.296
  H      672.880     265.916     487.780
  H      680.275     268.243     482.528
  H      674.608     265.752     487.663
  H      680.037     267.938     485.345
  H      680.089     270.389     485.588
  H      681.237     269.870     484.330
  P      681.231     265.897     483.391
  C      681.007     264.874     485.781
  O      681.742     265.723     484.911
  O      682.077     267.157     482.873
  O      681.425     264.703     482.518
  H      682.824     266.852     482.323
  H      681.470     264.865     486.746
  H      680.993     263.881     485.383
  H      680.004     265.237     485.870

 6  7  8  9  10  11  12  13  14  15  26  29  33  34 0
 6-311+G(2d,p)
 ****
 36  38  39  40  41 0
 6-311+G(2d,p)
 ****
 1  2  3  4  5  16  17  18  19  20  21  22  23  24  25 0
 3-21G
 ****
 27  28  30  31  32  35  37  42  43  44  45  46  47 0
 3-21G
 ****
 48  49 0
 3-21G
 ****


