%nproc=1
%NoSave
%Mem=1900MB
#P OB98/GEN NMR

erre ene a

0 1
  C     1456.112       7.996    -153.705
  O     1457.068       7.126    -153.120
  H     1456.114       7.888    -154.791
  H     1455.117       7.731    -153.317
  H     1456.336       9.031    -153.427
  P     1458.579       7.280    -153.637
  C     1458.759       4.700    -153.431
  O     1459.010       5.846    -154.231
  C     1458.951       3.430    -154.258
  O     1457.955       3.354    -155.304
  C     1460.302       3.331    -154.971
  O     1461.341       2.924    -154.093
  C     1459.984       2.261    -156.009
  O     1460.071       0.951    -155.390
  C     1458.524       2.567    -156.371
  N     1457.553       2.250    -161.422
  C     1457.614       1.314    -160.445
  N     1457.888       1.462    -159.150
  C     1458.102       2.758    -158.838
  C     1458.074       3.839    -159.724
  C     1457.792       3.552    -161.071
  N     1457.743       4.516    -162.035
  N     1458.321       5.019    -159.070
  C     1458.512       4.659    -157.808
  N     1458.385       3.310    -157.624
  O     1459.427       7.383    -152.286
  O     1458.831       8.450    -154.538
  H     1459.576       0.333    -155.963
  H     1460.175       7.994    -152.427
  H     1457.401       0.294    -160.773
  H     1458.722       5.346    -156.995
  H     1457.931       1.653    -156.454
  H     1460.677       2.266    -156.851
  H     1460.542       4.271    -155.480
  H     1458.800       2.569    -153.586
  H     1457.728       4.729    -153.046
  H     1457.349       4.280    -162.955
  H     1457.922       5.479    -161.783
  H     1459.454       4.712    -152.585
  P     1462.854       2.959    -154.672
  C     1463.312       0.835    -153.259
  O     1463.391       1.443    -154.527
  O     1463.660       3.752    -153.539
  O     1462.990       3.609    -156.018
  H     1464.443       4.162    -153.926
  H     1463.701      -0.160    -153.316
  H     1462.290       0.801    -152.943
  H     1463.884       1.402    -152.555

 6  7  8  9  10  11  12  13  14  15  25  28  32  33  34  35 0
 6-311+G(2d,p)
 ****
 36  39  40 0
 6-311+G(2d,p)
 ****
 1  2  3  4  5  16  17  18  19  20  21  22  23  24 0
 3-21G
 ****
 26  27  29  30  31  37  38  41  42  43  44  45  46  47  48 0
 3-21G
 ****


