%nproc=1
%NoSave
%Mem=1900MB
#P OB98/GEN NMR

erre ene a

0 1
  C     1434.905    -898.780     620.526
  O     1433.909    -898.650     621.519
  H     1434.501    -898.440     619.569
  H     1435.187    -899.840     620.426
  H     1435.795    -898.200     620.769
  P     1434.349    -898.630     623.060
  C     1431.871    -898.110     623.529
  O     1433.038    -898.820     623.959
  C     1430.614    -898.670     624.204
  O     1430.786    -898.690     625.644
  C     1429.367    -897.780     623.937
  O     1428.673    -898.090     622.733
  C     1428.512    -898.090     625.165
  O     1427.665    -899.230     624.945
  C     1429.539    -898.360     626.248
  N     1429.279    -896.640     631.052
  C     1428.818    -897.850     630.551
  N     1428.189    -898.660     631.417
  N     1428.971    -898.170     629.291
  C     1429.530    -897.220     628.524
  C     1429.997    -896.000     628.927
  C     1429.903    -895.630     630.313
  O     1430.308    -894.600     630.849
  N     1430.473    -895.260     627.861
  C     1430.209    -896.000     626.812
  N     1429.704    -897.240     627.178
  O     1434.740    -897.110     623.319
  O     1435.491    -899.550     623.399
  H     1428.240    -900.000     624.841
  H     1435.447    -897.070     623.997
  H     1429.176    -896.440     632.051
  H     1430.377    -895.740     625.786
  H     1429.239    -899.240     626.864
  H     1427.855    -897.250     625.390
  H     1427.983    -898.410     632.384
  H     1429.634    -896.720     623.941
  H     1427.681    -899.450     631.044
  H     1430.423    -899.700     623.884
  H     1431.813    -898.260     622.446
  H     1431.969    -897.050     623.732
  P     1428.833    -897.200     621.446
  C     1427.348    -898.950     620.158
  O     1427.685    -897.590     620.386
  O     1430.167    -897.760     620.732
  O     1428.909    -895.710     621.686
  H     1430.926    -897.200     620.961
  H     1426.570    -899.007     619.426
  H     1427.010    -899.392     621.072
  H     1428.210    -899.477     619.804

 6  7  8  9  10  11  12  13  14  15  26  29  33  34 0
 6-311+G(2d,p)
 ****
 36  38  39  40  41 0
 6-311+G(2d,p)
 ****
 1  2  3  4  5  16  17  18  19  20  21  22  23  24  25 0
 3-21G
 ****
 27  28  30  31  32  35  37  42  43  44  45  46  47 0
 3-21G
 ****
 48  49 0
 3-21G
 ****


