%nproc=1
%NoSave
%Mem=1900MB
#P OB98/GEN NMR

erre ene a

0 1
  C     -102.201     274.123      47.478
  O     -103.247     273.290      47.020
  H     -101.782     273.687      48.387
  H     -102.578     275.123      47.712
  H     -101.411     274.189      46.726
  P     -104.109     273.776      45.754
  C     -106.151     274.027      47.330
  O     -105.288     274.660      46.396
  C     -107.347     273.410      46.611
  O     -108.187     272.683      47.532
  C     -108.283     274.417      45.947
  O     -107.754     274.979      44.756
  C     -109.486     273.525      45.686
  O     -109.220     272.674      44.556
  C     -109.542     272.702      46.996
  N     -110.471     273.258      47.979
  C     -111.743     272.674      48.037
  O     -112.041     271.743      47.289
  N     -112.667     273.184      48.919
  C     -112.354     274.198      49.664
  N     -113.321     274.695      50.485
  C     -111.022     274.833      49.647
  C     -110.139     274.322      48.789
  O     -104.552     272.706      44.807
  O     -103.203     274.901      45.064
  H     -109.933     272.011      44.524
  H     -103.688     275.225      44.265
  H     -110.815     275.682      50.282
  H     -109.145     274.744      48.706
  H     -109.822     271.663      46.791
  H     -110.399     274.085      45.461
  H     -108.577     275.203      46.651
  H     -106.960     272.684      45.886
  H     -114.234     274.264      50.441
  H     -106.473     274.777      48.059
  H     -113.249     275.629      50.878
  H     -105.616     273.230      47.855
  P     -108.080     276.522      44.446
  C     -109.813     275.652      42.702
  O     -109.530     276.557      43.758
  O     -107.082     276.859      43.242
  O     -107.927     277.463      45.600
  H     -106.252     277.250      43.572
  H     -110.815     275.807      42.359
  H     -109.708     274.648      43.055
  H     -109.130     275.820      41.896

 6  7  8  9  10  11  12  13  14  15  16  26  30  31  32  33  35 0
 6-311+G(2d,p)
 ****
 37  38 0
 6-311+G(2d,p)
 ****
 1  2  3  4  5  17  18  19  20  21  22  23  24  25 0
 3-21G
 ****
 27  28  29  34  36  39  40  41  42  43  44  45  46 0
 3-21G
 ****


