%nproc=1
%NoSave
%Mem=1900MB
#P OB98/GEN NMR

erre ene a

0 1
  C      -50.661    -896.870    -898.760
  O      -49.923    -897.570    -897.740
  P      -48.858    -898.700    -898.170
  C      -46.775    -897.620    -896.960
  O      -47.402    -898.060    -898.190
  C      -46.697    -896.110    -896.910
  O      -48.014    -895.500    -896.900
  C      -45.979    -895.530    -895.720
  O      -44.575    -895.680    -895.810
  C      -46.455    -894.100    -895.730
  O      -45.659    -893.290    -896.630
  C      -47.901    -894.230    -896.230
  N      -48.901    -894.090    -895.160
  C      -48.978    -892.850    -894.560
  O      -48.228    -891.900    -894.850
  N      -49.934    -892.710    -893.580
  C      -50.743    -893.690    -893.120
  O      -51.577    -893.540    -892.230
  C      -50.543    -895.030    -893.760
  C      -49.649    -895.170    -894.710
  O      -49.192    -898.890    -899.720
  O      -49.000    -900.000    -897.430
  H      -44.819    -893.090    -896.150
  H      -48.950    -899.790    -900.000
  H      -50.037    -891.800    -893.150
  H      -51.151    -895.860    -893.400
  H      -49.496    -896.140    -895.190
  H      -48.109    -893.480    -896.990
  H      -46.375    -893.630    -894.740
  H      -46.364    -896.040    -894.800
  H      -46.198    -895.770    -897.880
  H      -45.786    -898.050    -896.910
  H      -47.378    -898.010    -896.130
  P      -43.786    -896.300    -894.520
  C      -43.668    -898.740    -895.500
  O      -44.176    -897.860    -894.520
  O      -44.621    -895.650    -893.350
  O      -42.338    -895.970    -894.550
  H      -45.579    -895.520    -893.570
  H      -42.653    -898.430    -895.820
  H      -44.355    -898.760    -896.360
  H      -43.624    -899.740    -895.080
  H      -51.318    -896.161    -898.302
  H      -51.234    -897.571    -899.330
  H      -49.979    -896.358    -899.406

 3  4  5  6  7  8  9  10  11  12  13  23  28  29  30  31  32 0
 6-311+G(2d,p)
 ****
 33  34 0
 6-311+G(2d,p)
 ****
 1  2  14  15  16  17  18  19  20  21  22  24  25  26 0
 3-21G
 ****
 27  35  36  37  38  39  40  41  42  43  44  45 0
 3-21G
 ****


