%nproc=1
%NoSave
%Mem=1900MB
#P OB98/GEN NMR

erre ene a

0 1
  C       33.008     867.859     330.813
  O       34.351     867.797     331.256
  H       32.377     867.347     331.539
  H       32.908     867.359     329.845
  H       32.685     868.905     330.735
  P       35.450     868.480     330.309
  C       36.472     866.095     330.256
  O       36.718     867.487     330.298
  C       37.703     865.356     329.750
  O       38.022     865.758     328.391
  C       38.963     865.568     330.571
  O       38.990     864.709     331.699
  C       40.047     865.233     329.560
  O       40.242     863.809     329.437
  C       39.467     865.813     328.261
  N       41.796     868.794     324.905
  C       41.485     867.458     324.844
  N       41.920     866.789     323.743
  N       40.833     866.809     325.784
  C       40.508     867.587     326.842
  C       40.741     868.934     327.011
  C       41.432     869.644     325.958
  O       41.678     870.844     325.924
  N       40.234     869.377     328.203
  C       39.729     868.299     328.767
  N       39.887     867.178     327.981
  O       35.966     869.730     331.164
  O       34.962     868.903     328.957
  H       39.482     863.414     328.967
  H       36.230     870.447     330.557
  H       42.289     869.241     324.158
  H       39.243     868.261     329.735
  H       39.727     865.214     327.376
  H       41.015     865.649     329.838
  H       42.681     867.130     323.182
  H       39.061     866.619     330.866
  H       41.709     865.797     323.692
  H       37.449     864.279     329.705
  H       35.626     865.896     329.590
  H       36.221     865.749     331.273
  P       39.236     865.383     333.142
  C       41.740     864.896     333.665
  O       40.388     864.516     333.849
  O       37.920     864.991     333.967
  O       39.460     866.866     333.116
  H       37.834     865.569     334.753
  H       42.376     864.221     334.198
  H       41.885     865.889     334.035
  H       41.981     864.865     332.623

 6  7  8  9  10  11  12  13  14  15  26  29  33  34 0
 6-311+G(2d,p)
 ****
 36  38  39  40  41 0
 6-311+G(2d,p)
 ****
 1  2  3  4  5  16  17  18  19  20  21  22  23  24  25 0
 3-21G
 ****
 27  28  30  31  32  35  37  42  43  44  45  46  47 0
 3-21G
 ****
 48  49 0
 3-21G
 ****


