%nproc=1
%NoSave
%Mem=1900MB
#P OB98/GEN NMR

erre ene a

0 1
  C      227.016     103.163    -126.690
  O      227.419     103.110    -125.329
  P      227.725     101.664    -124.698
  C      226.171      99.625    -124.109
  O      226.297     101.013    -124.381
  C      225.272      99.407    -122.886
  O      225.962      99.827    -121.688
  C      223.968     100.195    -122.907
  O      223.010      99.613    -123.770
  C      223.591     100.179    -121.428
  O      222.973      98.927    -121.086
  C      224.971     100.293    -120.744
  N      225.276     101.652    -120.285
  C      225.148     101.876    -118.916
  O      224.799     101.006    -118.118
  N      225.412     103.154    -118.495
  C      225.728     104.217    -119.296
  O      225.913     105.352    -118.872
  C      225.818     103.924    -120.736
  C      225.591     102.673    -121.157
  O      228.310     102.088    -123.269
  O      228.644     100.839    -125.537
  H      227.956     102.945    -122.976
  H      223.536      98.225    -121.468
  H      225.352     103.340    -117.503
  H      226.055     104.740    -121.404
  H      225.644     102.439    -122.214
  H      225.027      99.614    -119.887
  H      222.886     100.978    -121.160
  H      224.167     101.227    -123.221
  H      225.068      98.328    -122.796
  H      227.161      99.205    -123.916
  H      225.747      99.123    -124.989
  P      222.148     100.626    -124.683
  C      220.817     102.769    -123.989
  O      221.220     101.450    -123.672
  O      221.139      99.610    -125.406
  O      222.979     101.448    -125.614
  H      220.788      98.928    -124.805
  H      219.939     103.019    -123.392
  H      220.564     102.861    -125.049
  H      221.623     103.466    -123.742
  H      226.848     104.181    -126.973
  H      226.113     102.604    -126.816
  H      227.784     102.744    -127.306

 3  4  5  6  7  8  9  10  11  12  13  24  28  29  30  31  32 0
 6-311+G(2d,p)
 ****
 33  34 0
 6-311+G(2d,p)
 ****
 1  2  14  15  16  17  18  19  20  21  22  23  25  26  27 0
 3-21G
 ****
 35  36  37  38  39  40  41  42  43  44  45 0
 3-21G
 ****


