%nproc=1
%NoSave
%Mem=1900MB
#P OB98/GEN NMR

erre ene a

0 1
  C     1373.424     725.201     859.932
  O     1374.601     724.836     859.171
  P     1375.908     724.333     859.970
  C     1375.811     721.982     858.907
  O     1375.858     722.716     860.122
  C     1376.460     720.597     859.089
  O     1377.864     720.724     859.524
  C     1375.729     719.726     860.165
  O     1375.820     718.347     859.820
  C     1376.640     719.963     861.403
  O     1376.425     718.908     862.353
  C     1378.013     720.009     860.728
  N     1380.325     720.025     865.333
  C     1379.424     719.179     864.788
  N     1378.884     719.231     863.551
  C     1379.369     720.260     862.842
  C     1380.337     721.190     863.258
  C     1380.817     721.036     864.549
  N     1381.753     721.885     865.106
  N     1380.579     722.122     862.240
  C     1379.759     721.773     861.263
  N     1378.999     720.625     861.591
  O     1376.201     725.042     861.242
  O     1377.112     724.521     858.908
  H     1377.003     719.048     863.087
  H     1377.855     724.945     859.353
  H     1379.081     718.365     865.410
  H     1379.688     722.327     860.359
  H     1378.390     718.998     860.478
  H     1376.396     720.921     861.833
  H     1374.708     720.016     860.341
  H     1376.476     720.082     858.132
  H     1376.357     722.524     858.116
  H     1381.972     721.794     866.076
  H     1382.010     722.748     864.643
  H     1374.770     721.897     858.565
  P     1374.443     717.690     859.299
  C     1375.289     717.886     856.787
  O     1374.252     718.147     857.796
  O     1373.277     717.934     860.222
  O     1374.858     716.140     859.195
  H     1375.657     715.957     858.685
  H     1374.895     718.193     855.845
  H     1375.494     716.831     856.836
  H     1376.169     718.503     857.065
  H     1372.649     725.511     859.263
  H     1373.664     726.005     860.597
  H     1373.090     724.357     860.499

 3  4  5  6  7  8  9  10  11  12  22  25  29  30  31  32 0
 6-311+G(2d,p)
 ****
 33  36  37 0
 6-311+G(2d,p)
 ****
 1  2  13  14  15  16  17  18  19  20  21  23  24  26 0
 3-21G
 ****
 27  28  34  35  38  39  40  41  42  43  44  45  46  47  48 0
 3-21G
 ****


