%nproc=1
%NoSave
%Mem=1900MB
#P OB98/GEN NMR

erre ene a

0 1
  C     -312.246    -645.534     238.551
  O     -313.367    -644.695     238.389
  H     -311.345    -644.910     238.553
  H     -312.184    -646.232     237.719
  H     -312.283    -646.081     239.496
  P     -314.828    -645.309     238.648
  C     -315.905    -643.177     239.615
  O     -315.455    -644.496     239.882
  C     -315.128    -642.153     240.455
  O     -313.750    -642.123     239.999
  C     -315.693    -640.717     240.360
  O     -315.430    -640.080     241.615
  C     -314.818    -640.126     239.270
  O     -314.861    -638.717     239.276
  C     -313.463    -640.758     239.612
  N     -312.515    -640.696     238.494
  C     -312.214    -639.433     238.001
  O     -312.723    -638.397     238.443
  N     -311.340    -639.377     236.956
  C     -310.809    -640.465     236.315
  O     -310.048    -640.364     235.350
  C     -311.191    -641.777     236.856
  C     -312.007    -641.837     237.889
  O     -314.896    -646.793     238.780
  O     -315.711    -644.784     237.413
  H     -314.281    -638.358     238.574
  H     -316.401    -645.428     237.198
  H     -311.104    -638.470     236.587
  H     -310.788    -642.656     236.363
  H     -312.317    -642.790     238.314
  H     -313.004    -640.256     240.466
  H     -315.152    -640.459     238.277
  H     -316.750    -640.681     240.126
  H     -315.112    -642.502     241.497
  H     -316.971    -643.127     239.868
  H     -315.782    -642.959     238.551
  P     -316.562    -639.878     242.721
  C     -315.605    -640.953     244.856
  O     -316.513    -641.093     243.764
  O     -317.923    -639.607     242.173
  O     -316.069    -638.618     243.594
  H     -316.834    -638.151     243.976
  H     -315.661    -641.820     245.480
  H     -315.864    -640.086     245.427
  H     -314.609    -640.848     244.480

 6  7  8  9  10  11  12  13  14  15  16  26  31  32  33  34  35 0
 6-311+G(2d,p)
 ****
 36  37 0
 6-311+G(2d,p)
 ****
 1  2  3  4  5  17  18  19  20  21  22  23  24  25 0
 3-21G
 ****
 27  28  29  30  38  39  40  41  42  43  44  45 0
 3-21G
 ****


