%nproc=1
%NoSave
%Mem=1900MB
#P OB98/GEN NMR

erre ene a

0 1
  C     -375.174     281.514    -661.748
  O     -375.196     282.582    -662.673
  H     -374.174     281.085    -661.722
  H     -375.877     280.737    -662.069
  H     -375.439     281.864    -660.747
  P     -376.429     283.597    -662.595
  C     -377.185     283.662    -665.088
  O     -376.507     284.339    -664.027
  C     -376.511     283.992    -666.419
  O     -376.438     285.434    -666.568
  C     -375.095     283.428    -666.578
  O     -374.904     283.025    -667.937
  C     -374.223     284.644    -666.316
  O     -372.926     284.521    -666.903
  C     -375.085     285.744    -666.943
  N     -371.583     289.282    -667.610
  C     -371.864     288.146    -668.341
  N     -371.041     287.873    -669.382
  N     -372.853     287.339    -668.072
  C     -373.602     287.747    -667.017
  C     -373.439     288.853    -666.215
  C     -372.322     289.722    -666.506
  O     -372.025     290.736    -665.885
  N     -374.384     288.875    -665.212
  C     -375.100     287.767    -665.402
  N     -374.677     287.057    -666.481
  O     -375.877     284.741    -661.621
  O     -377.715     283.018    -662.105
  H     -372.409     285.317    -666.670
  H     -376.167     284.561    -660.702
  H     -370.787     289.862    -667.839
  H     -375.926     287.454    -664.774
  H     -375.018     285.752    -668.046
  H     -374.109     284.802    -665.244
  H     -370.262     288.457    -669.653
  H     -374.867     282.598    -665.894
  H     -371.253     287.053    -669.944
  H     -377.158     283.615    -667.236
  H     -378.227     283.986    -665.109
  H     -377.160     282.579    -664.894
  P     -375.492     281.586    -668.378
  C     -373.450     280.661    -669.726
  O     -374.781     281.154    -669.760
  O     -376.998     281.941    -668.826
  O     -375.466     280.558    -667.301
  H     -377.579     281.202    -668.601
  H     -373.132     280.423    -670.720
  H     -373.411     279.781    -669.118
  H     -372.804     281.408    -669.314

 6  7  8  9  10  11  12  13  14  15  26  29  33  34 0
 6-311+G(2d,p)
 ****
 36  38  39  40  41 0
 6-311+G(2d,p)
 ****
 1  2  3  4  5  16  17  18  19  20  21  22  23  24  25 0
 3-21G
 ****
 27  28  30  31  32  35  37  42  43  44  45  46  47 0
 3-21G
 ****
 48  49 0
 3-21G
 ****


