%nproc=1
%NoSave
%Mem=1900MB
#P OB98/GEN NMR

erre ene a

0 1
  C     -280.633     197.060     202.183
  O     -281.697     197.957     201.845
  P     -283.072     197.948     202.677
  C     -284.660     196.619     201.183
  O     -284.308     197.918     201.644
  C     -285.266     196.620     199.766
  O     -286.661     197.031     199.802
  C     -284.556     197.532     198.760
  O     -284.667     196.887     197.487
  C     -285.411     198.794     198.814
  O     -285.208     199.629     197.666
  C     -286.810     198.192     198.957
  N     -287.763     199.148     199.500
  C     -288.012     200.308     198.762
  O     -287.380     200.520     197.721
  N     -288.913     201.218     199.240
  C     -289.454     201.045     200.399
  N     -290.333     202.000     200.836
  C     -289.169     199.868     201.266
  C     -288.335     198.967     200.750
  O     -283.173     199.006     203.734
  O     -283.105     196.480     203.339
  H     -284.264     199.869     197.632
  H     -283.585     196.525     204.184
  H     -289.636     199.777     202.238
  H     -288.066     198.078     201.296
  H     -287.190     197.849     197.988
  H     -285.148     199.376     199.702
  H     -283.507     197.716     199.011
  H     -285.261     195.581     199.400
  H     -290.479     202.804     200.227
  H     -285.385     196.180     201.881
  H     -290.727     202.011     201.762
  H     -283.778     195.969     201.198
  P     -283.513     195.954     196.897
  C     -282.578     197.486     195.070
  O     -283.349     196.341     195.353
  O     -283.683     194.490     197.156
  O     -282.163     196.507     197.561
  H     -281.461     195.836     197.484
  H     -282.360     197.525     194.000
  H     -281.631     197.465     195.621
  H     -283.136     198.391     195.359
  H     -279.809     197.218     201.519
  H     -280.976     196.050     202.093
  H     -280.320     197.242     203.190

 3  4  5  6  7  8  9  10  11  12  13  23  27  28  29  30  32 0
 6-311+G(2d,p)
 ****
 34  35 0
 6-311+G(2d,p)
 ****
 1  2  14  15  16  17  18  19  20  21  22  24  25  26 0
 3-21G
 ****
 31  33  36  37  38  39  40  41  42  43  44  45  46 0
 3-21G
 ****


