%nproc=1
%NoSave
%Mem=1900MB
#P OB98/GEN NMR

erre ene a

0 1
  C     -347.749     111.373    -431.068
  O     -347.033     112.115    -430.075
  P     -346.625     111.321    -428.736
  C     -344.516     112.846    -428.705
  O     -345.549     112.219    -427.956
  C     -343.506     113.521    -427.779
  O     -344.067     114.694    -427.165
  C     -343.047     112.650    -426.617
  O     -342.054     111.719    -427.018
  C     -342.461     113.695    -425.678
  O     -341.117     114.010    -426.077
  C     -343.385     114.901    -425.906
  N     -344.172     115.544    -420.942
  C     -342.990     115.417    -421.641
  N     -341.851     115.509    -420.914
  N     -342.926     115.231    -422.930
  C     -344.139     115.193    -423.531
  C     -345.383     115.302    -422.946
  C     -345.439     115.483    -421.512
  O     -346.462     115.566    -420.837
  N     -346.383     115.228    -423.879
  C     -345.751     115.100    -425.029
  N     -344.386     115.063    -424.867
  O     -345.749     110.102    -429.294
  O     -347.789     110.852    -427.931
  H     -340.624     113.164    -426.120
  H     -345.798     109.347    -428.679
  H     -344.164     115.684    -419.945
  H     -346.229     115.038    -425.998
  H     -342.824     115.836    -425.990
  H     -342.410     113.352    -424.640
  H     -341.826     115.727    -419.932
  H     -343.901     112.154    -426.136
  H     -340.975     115.454    -421.419
  H     -342.639     113.823    -428.381
  H     -344.946     113.593    -429.377
  H     -344.031     112.097    -429.335
  P     -342.493     110.177    -427.122
  C     -340.492     109.656    -428.691
  O     -341.150     109.378    -427.472
  O     -343.338     110.135    -428.479
  O     -343.273     109.677    -425.956
  H     -344.006     109.424    -428.439
  H     -340.450     110.733    -428.879
  H     -341.012     109.159    -429.517
  H     -339.471     109.273    -428.636
  H     -347.960     112.007    -431.904
  H     -348.667     111.013    -430.652
  H     -347.155     110.544    -431.391

 3  4  5  6  7  8  9  10  11  12  23  26  30  31  33  0
 6-311+G(2d,p)
 ****
 35  36  37  38 0
 6-311+G(2d,p)
 ****
 1  2  13  14  15  16  17  18  19  20  21  22  24  25  27  28  29 0
 3-21G
 ****
 32  34  39  40  41  42  43  44  45  46  47  48  49 0
 3-21G
 ****


