%nproc=1
%NoSave
%Mem=1900MB
#P OB98/GEN NMR

erre ene a

0 1
  C      -54.856    -198.298     131.965
  O      -54.167    -197.138     131.514
  P      -54.510    -195.746     132.240
  C      -56.025    -195.175     130.212
  O      -55.919    -195.278     131.629
  C      -57.334    -195.787     129.729
  O      -57.645    -196.953     130.517
  C      -58.544    -194.879     129.853
  O      -58.623    -193.950     128.783
  C      -59.680    -195.889     129.786
  O      -59.952    -196.223     128.413
  C      -59.087    -197.097     130.529
  N      -62.842    -198.578     133.589
  C      -62.745    -198.635     132.213
  N      -63.790    -199.194     131.561
  N      -61.723    -198.188     131.535
  C      -60.737    -197.694     132.320
  C      -60.716    -197.582     133.692
  C      -61.878    -198.034     134.427
  O      -62.047    -197.948     135.642
  N      -59.534    -197.041     134.131
  C      -58.826    -196.863     133.033
  N      -59.527    -197.216     131.905
  O      -53.465    -194.729     131.579
  O      -54.407    -195.764     133.728
  H      -59.124    -196.570     128.034
  H      -53.300    -193.982     132.189
  H      -63.644    -198.953     134.061
  H      -57.815    -196.485     133.007
  H      -59.320    -198.035     130.007
  H      -60.614    -195.509     130.213
  H      -64.542    -199.675     132.031
  H      -58.559    -194.371     130.826
  H      -63.723    -199.281     130.556
  H      -57.197    -196.110     128.689
  H      -55.187    -195.706     129.746
  H      -55.968    -194.119     129.932
  P      -58.398    -192.402     129.155
  C      -60.666    -191.810     128.030
  O      -59.866    -191.763     129.197
  O      -57.750    -191.797     127.820
  O      -57.543    -192.178     130.355
  H      -57.209    -191.013     128.037
  H      -60.513    -192.744     127.479
  H      -60.422    -190.963     127.388
  H      -61.717    -191.748     128.320
  H      -54.533    -199.147     131.399
  H      -55.909    -198.161     131.834
  H      -54.644    -198.458     133.001

 3  4  5  6  7  8  9  10  11  12  23  26  30  31  33  0
 6-311+G(2d,p)
 ****
 35  36  37  38 0
 6-311+G(2d,p)
 ****
 1  2  13  14  15  16  17  18  19  20  21  22  24  25  27  28  29 0
 3-21G
 ****
 32  34  39  40  41  42  43  44  45  46  47  48  49 0
 3-21G
 ****


