%nproc=1
%NoSave
%Mem=1900MB
#P OB98/GEN NMR

erre ene a

0 1
  C     -296.902     513.735    -193.028
  O     -296.679     512.553    -192.287
  H     -296.656     513.556    -194.079
  H     -296.257     514.532    -192.648
  H     -297.947     514.043    -192.965
  P     -297.267     512.496    -190.800
  C     -298.538     510.269    -191.198
  O     -298.635     511.646    -190.862
  C     -299.907     509.591    -191.076
  O     -300.404     509.786    -189.729
  C     -300.957     510.157    -192.046
  O     -301.772     509.085    -192.523
  C     -301.791     511.080    -191.164
  O     -303.115     511.259    -191.665
  C     -301.721     510.356    -189.822
  N     -305.291     512.094    -186.718
  C     -305.348     511.093    -187.681
  N     -306.533     510.482    -187.844
  N     -304.328     510.745    -188.412
  C     -303.196     511.426    -188.115
  C     -303.013     512.430    -187.206
  C     -304.157     512.833    -186.413
  O     -304.180     513.727    -185.573
  N     -301.722     512.899    -187.228
  C     -301.123     512.177    -188.157
  N     -301.976     511.254    -188.722
  O     -297.777     513.995    -190.549
  O     -296.302     512.065    -189.744
  H     -303.512     510.368    -191.773
  H     -297.253     514.405    -189.837
  H     -306.119     512.333    -186.194
  H     -300.092     512.273    -188.462
  H     -302.454     509.542    -189.756
  H     -301.310     512.065    -191.105
  H     -307.351     510.659    -187.279
  H     -300.517     510.686    -192.895
  H     -306.593     509.708    -188.511
  H     -299.773     508.517    -191.222
  H     -297.837     509.784    -190.512
  H     -298.155     510.172    -192.225
  P     -301.689     508.740    -194.086
  C     -300.152     506.677    -193.822
  O     -300.300     507.977    -194.362
  O     -301.449     510.185    -194.762
  O     -302.904     508.082    -194.636
  H     -302.266     510.464    -195.223
  H     -299.188     506.291    -194.081
  H     -300.911     506.037    -194.220
  H     -300.245     506.721    -192.757

 6  7  8  9  10  11  12  13  14  15  26  29  33  34 0
 6-311+G(2d,p)
 ****
 36  38  39  40  41 0
 6-311+G(2d,p)
 ****
 1  2  3  4  5  16  17  18  19  20  21  22  23  24  25 0
 3-21G
 ****
 27  28  30  31  32  35  37  42  43  44  45  46  47 0
 3-21G
 ****
 48  49 0
 3-21G
 ****


