%nproc=1
%NoSave
%Mem=1900MB
#P OB98/GEN NMR

erre ene a

0 1
  C       87.520      45.512     -36.547
  O       88.199      45.379     -35.312
  P       89.574      44.554     -35.302
  C       90.681      46.283     -33.693
  O       90.743      45.584     -34.930
  C       91.239      47.696     -33.870
  O       90.357      48.486     -34.696
  C       91.375      48.466     -32.564
  O       92.534      48.070     -31.847
  C       91.430      49.904     -33.058
  O       92.760      50.257     -33.471
  C       90.477      49.860     -34.270
  N       89.176      50.455     -33.982
  C       89.161      51.838     -33.819
  O       90.179      52.530     -33.887
  N       87.946      52.395     -33.533
  C       86.776      51.716     -33.345
  O       85.727      52.266     -33.036
  C       86.857      50.254     -33.501
  C       88.035      49.700     -33.800
  O       89.834      44.223     -36.847
  O       89.549      43.319     -34.467
  H       93.362      49.939     -32.769
  H       90.248      43.344     -36.931
  H       87.908      53.397     -33.438
  H       85.949      49.684     -33.358
  H       88.118      48.624     -33.905
  H       90.920      50.399     -35.117
  H       91.135      50.619     -32.283
  H       90.473      48.331     -31.954
  H       92.209      47.624     -34.378
  H       91.267      45.745     -32.944
  H       89.641      46.319     -33.355
  P       92.307      47.464     -30.377
  C       94.124      45.591     -30.489
  O       92.756      45.929     -30.485
  O       90.708      47.431     -30.310
  O       92.960      48.273     -29.307
  H       90.308      47.264     -31.182
  H       94.703      46.254     -29.840
  H       94.511      45.654     -31.509
  H       94.234      44.564     -30.132
  H       86.626      46.082     -36.403
  H       87.268      44.542     -36.922
  H       88.153      46.013     -37.250

 3  4  5  6  7  8  9  10  11  12  13  23  28  29  30  31  32 0
 6-311+G(2d,p)
 ****
 33  34 0
 6-311+G(2d,p)
 ****
 1  2  14  15  16  17  18  19  20  21  22  24  25  26 0
 3-21G
 ****
 27  35  36  37  38  39  40  41  42  43  44  45 0
 3-21G
 ****


