%nproc=1
%NoSave
%Mem=1900MB
#P OB98/GEN NMR

erre ene a

0 1
  C      207.249    -635.524      83.409
  O      208.030    -634.875      82.427
  H      206.224    -635.631      83.030
  H      207.214    -634.931      84.326
  H      207.639    -636.530      83.626
  P      209.611    -634.734      82.678
  C      209.401    -632.511      83.961
  O      209.933    -633.173      82.819
  C      209.837    -631.047      83.965
  O      211.223    -630.933      84.300
  C      209.685    -630.359      82.609
  O      208.325    -630.062      82.315
  C      210.594    -629.151      82.802
  O      209.919    -628.115      83.505
  C      211.719    -629.743      83.654
  N      212.931    -630.049      82.845
  C      214.134    -629.580      83.379
  O      214.243    -628.991      84.432
  N      215.240    -629.797      82.587
  C      215.232    -630.285      81.297
  O      216.182    -630.221      80.544
  C      213.910    -630.791      80.819
  C      212.863    -630.635      81.625
  O      210.478    -635.477      81.701
  O      209.804    -635.287      84.177
  H      210.147    -636.200      84.139
  H      210.465    -627.302      83.384
  H      216.107    -629.441      82.926
  H      213.893    -631.260      79.850
  H      211.874    -630.990      81.275
  H      212.018    -629.057      84.453
  H      210.915    -628.747      81.828
  H      210.102    -630.994      81.819
  H      209.262    -630.508      84.735
  H      209.788    -633.012      84.861
  H      208.300    -632.605      83.956
  P      207.567    -630.779      81.103
  C      208.955    -629.890      79.107
  O      207.712    -629.818      79.809
  O      206.189    -631.251      81.389
  O      208.542    -632.014      80.727
  H      207.991    -632.827      80.677
  H      208.935    -629.216      78.276
  H      209.107    -630.888      78.753
  H      209.753    -629.620      79.766

 6  7  8  9  10  11  12  13  14  15  16  27  31  32  33  34  35 0
 6-311+G(2d,p)
 ****
 36  37 0
 6-311+G(2d,p)
 ****
 1  2  3  4  5  17  18  19  20  21  22  23  24  25 0
 3-21G
 ****
 26  28  29  30  38  39  40  41  42  43  44  45 0
 3-21G
 ****


