%nproc=1
%NoSave
%Mem=1900MB
#P OB98/GEN NMR

erre ene a

0 1
  C      -32.240     -55.072     -49.999
  O      -32.797     -56.024     -49.115
  H      -31.311     -54.693     -49.566
  H      -32.934     -54.238     -50.137
  H      -32.017     -55.535     -50.964
  P      -34.167     -56.714     -49.582
  C      -35.385     -57.028     -47.299
  O      -34.646     -57.626     -48.353
  C      -34.882     -57.533     -45.941
  O      -33.570     -56.951     -45.683
  C      -35.782     -57.137     -44.759
  O      -35.643     -58.145     -43.743
  C      -35.128     -55.848     -44.291
  O      -35.594     -55.479     -43.014
  C      -33.661     -56.247     -44.424
  N      -30.361     -53.573     -41.580
  C      -31.068     -54.694     -41.322
  N      -31.917     -55.355     -42.133
  C      -31.989     -54.758     -43.335
  C      -31.323     -53.616     -43.748
  C      -30.475     -53.008     -42.805
  N      -29.761     -51.861     -43.063
  N      -31.655     -53.302     -45.053
  C      -32.505     -54.240     -45.419
  N      -32.743     -55.134     -44.412
  O      -33.690     -57.775     -50.681
  O      -35.205     -55.785     -50.116
  H      -35.209     -54.620     -42.737
  H      -33.771     -57.388     -51.573
  H      -30.934     -55.115     -40.329
  H      -32.983     -54.313     -46.389
  H      -33.354     -56.941     -43.633
  H      -35.370     -55.021     -44.965
  H      -36.836     -57.036     -45.030
  H      -34.742     -58.618     -45.992
  H      -36.441     -57.289     -47.424
  H      -35.274     -55.941     -47.346
  H      -29.188     -51.479     -42.328
  H      -29.850     -51.420     -43.966
  P      -36.933     -58.999     -43.307
  C      -36.587     -58.779     -40.723
  O      -36.664     -59.630     -41.857
  O      -36.813     -60.288     -44.255
  O      -38.251     -58.325     -43.495
  H      -37.702     -60.654     -44.420
  H      -36.404     -59.367     -39.848
  H      -37.510     -58.250     -40.611
  H      -35.789     -58.079     -40.856

 6  7  8  9  10  11  12  13  14  15  25  28  32  33  34  35 0
 6-311+G(2d,p)
 ****
 36  37  40 0
 6-311+G(2d,p)
 ****
 1  2  3  4  5  16  17  18  19  20  21  22  23  24 0
 3-21G
 ****
 26  27  29  30  31  38  39 41  42  43  44  45  46  47  48 0
 3-21G
 ****


