%nproc=1
%NoSave
%Mem=1900MB
#P OB98/GEN NMR

erre ene a

0 1
  C     -134.003     -63.319     -74.514
  O     -133.377     -62.733     -75.640
  P     -133.829     -61.261     -76.088
  C     -132.273     -60.028     -74.369
  O     -133.584     -60.305     -74.824
  C     -131.913     -58.564     -74.642
  O     -130.632     -58.270     -74.021
  C     -131.795     -58.207     -76.129
  O     -132.268     -56.863     -76.282
  C     -130.298     -58.275     -76.373
  O     -129.893     -57.528     -77.510
  C     -129.767     -57.736     -75.042
  N     -128.375     -58.104     -74.778
  C     -127.469     -57.080     -74.523
  O     -127.764     -55.887     -74.526
  N     -126.178     -57.475     -74.285
  C     -125.702     -58.753     -74.344
  O     -124.531     -59.047     -74.141
  C     -126.696     -59.786     -74.666
  C     -127.964     -59.422     -74.855
  O     -135.418     -61.430     -76.148
  O     -133.197     -60.798     -77.356
  H     -135.762     -62.026     -75.461
  H     -128.978     -57.783     -77.729
  H     -125.510     -56.752     -74.061
  H     -126.355     -60.812     -74.737
  H     -128.715     -60.166     -75.094
  H     -129.869     -56.645     -75.011
  H     -130.002     -59.319     -76.530
  H     -132.371     -58.880     -76.770
  H     -132.663     -57.929     -74.155
  H     -131.563     -60.672     -74.892
  H     -132.208     -60.252     -73.299
  P     -133.227     -56.533     -77.532
  C     -135.389     -56.945     -76.117
  O     -134.630     -57.255     -77.263
  O     -132.557     -57.465     -78.655
  O     -133.275     -55.095     -77.927
  H     -132.397     -58.371     -78.347
  H     -136.421     -57.266     -76.281
  H     -135.387     -55.871     -75.914
  H     -134.987     -57.480     -75.253
  H     -133.595     -64.294     -74.346
  H     -135.055     -63.399     -74.692
  H     -133.833     -62.707     -73.653

 3  4  5  6  7  8  9  10  11  12  13  24  28  29  30  31  32 0
 6-311+G(2d,p)
 ****
 33  34 0
 6-311+G(2d,p)
 ****
 1  2  14  15  16  17  18  19  20  21  22  23  25  26  27 0
 3-21G
 ****
 35  36  37  38  39  40  41  42  43  44  45 0
 3-21G
 ****


