%nproc=1
%NoSave
%Mem=1900MB
#P OB98/GEN NMR

erre ene a

0 1
  C      -59.685    -426.249     114.405
  O      -58.402    -426.290     115.001
  P      -57.085    -426.079     114.116
  C      -56.116    -428.285     114.988
  O      -55.891    -426.890     114.825
  C      -55.678    -428.761     116.376
  O      -54.236    -428.618     116.492
  C      -56.308    -427.987     117.548
  O      -56.475    -428.928     118.616
  C      -55.220    -426.992     117.915
  O      -55.354    -426.487     119.238
  C      -53.979    -427.850     117.683
  N      -50.114    -425.491     120.068
  C      -51.189    -426.163     120.540
  N      -52.188    -426.739     119.841
  C      -51.997    -426.577     118.523
  C      -50.971    -425.892     117.893
  C      -49.978    -425.347     118.729
  N      -48.860    -424.690     118.265
  N      -51.155    -425.895     116.523
  C      -52.272    -426.566     116.329
  N      -52.784    -427.051     117.507
  O      -56.762    -424.661     113.787
  O      -57.364    -426.930     112.791
  H      -55.318    -427.236     119.863
  H      -57.562    -426.329     112.046
  H      -51.253    -426.252     121.621
  H      -52.753    -426.725     115.373
  H      -53.800    -428.547     118.508
  H      -55.251    -426.142     117.222
  H      -57.257    -427.507     117.303
  H      -55.901    -429.829     116.455
  H      -55.535    -428.811     114.227
  H      -48.150    -424.454     118.940
  H      -48.600    -424.802     117.286
  H      -57.176    -428.512     114.827
  P      -57.736    -428.798     119.601
  C      -56.229    -428.275     121.607
  O      -57.204    -429.152     121.069
  O      -58.964    -429.527     119.168
  O      -57.986    -427.212     119.682
  H      -58.884    -427.041     120.026
  H      -55.244    -428.534     121.194
  H      -56.202    -428.397     122.697
  H      -56.458    -427.234     121.369
  H      -60.432    -426.410     115.154
  H      -59.757    -427.013     113.660
  H      -59.837    -425.292     113.951

 3  4  5  6  7  8  9  10  11  12  22  25  29  30  31  32 0
 6-311+G(2d,p)
 ****
 33  36  37 0
 6-311+G(2d,p)
 ****
 1  2  13  14  15  16  17  18  19  20  21  23  24  26 0
 3-21G
 ****
 27  28  34  35  38  39  40  41  42  43  44  45  46  47  48 0
 3-21G
 ****


