%nproc=1
%NoSave
%Mem=1900MB
#P OB98/GEN NMR

erre ene a

0 1
  C       13.301     229.489     -66.991
  O       11.893     229.466     -66.750
  P       10.966     230.575     -67.442
  C       11.114     232.357     -65.587
  O       11.429     232.027     -66.930
  C       11.414     233.835     -65.302
  O       12.828     234.121     -65.510
  C       10.624     234.782     -66.218
  O       10.301     235.997     -65.526
  C       11.630     235.117     -67.303
  O       11.288     236.322     -67.981
  C       12.918     235.180     -66.485
  N       16.895     237.605     -68.614
  C       15.916     238.039     -67.788
  N       14.904     237.331     -67.243
  C       14.971     236.041     -67.617
  C       15.914     235.455     -68.445
  C       16.912     236.299     -68.963
  N       17.891     235.865     -69.828
  N       15.658     234.107     -68.608
  C       14.548     233.897     -67.928
  N       14.115     235.025     -67.285
  O        9.497     230.326     -67.376
  O       11.480     230.568     -68.961
  H       11.385     237.055     -67.344
  H       10.709     230.629     -69.559
  H       15.946     239.095     -67.537
  H       14.016     232.959     -67.879
  H       13.006     236.127     -65.937
  H       11.667     234.307     -68.040
  H        9.704     234.356     -66.627
  H       11.196     234.047     -64.249
  H       11.689     231.724     -64.906
  H       18.491     236.564     -70.239
  H       17.826     234.932     -70.212
  H       10.060     232.121     -65.397
  P        8.793     236.117     -64.975
  C        8.316     237.379     -67.214
  O        7.886     236.439     -66.254
  O        8.653     237.048     -63.816
  O        8.451     234.595     -64.621
  H        8.644     233.957     -65.329
  H        7.626     237.358     -68.062
  H        9.318     237.137     -67.577
  H        8.311     238.386     -66.783
  H       13.767     228.687     -66.458
  H       13.705     230.422     -66.657
  H       13.485     229.376     -68.039

 3  4  5  6  7  8  9  10  11  12  22  25  29  30  31  32 0
 6-311+G(2d,p)
 ****
 33  36  37 0
 6-311+G(2d,p)
 ****
 1  2  13  14  15  16  17  18  19  20  21  23  24  26 0
 3-21G
 ****
 27  28  34  35  38  39  40  41  42  43  44  45  46  47  48 0
 3-21G
 ****


