%nproc=1
%NoSave
%Mem=1900MB
#P OB98/GEN NMR

erre ene a

0 1
  C       12.782     116.310     277.638
  O       14.143     116.111     277.234
  P       14.729     114.674     276.827
  C       15.482     112.498     277.991
  O       15.125     113.868     278.153
  C       16.729     112.138     278.807
  O       17.926     112.458     278.073
  C       16.860     112.876     280.134
  O       15.979     112.339     281.108
  C       18.342     112.679     280.435
  O       18.583     111.392     281.033
  C       18.965     112.752     279.028
  N       19.589     114.041     278.757
  C       20.931     114.174     279.121
  O       21.518     113.254     279.692
  N       21.571     115.362     278.852
  C       20.907     116.348     278.335
  N       21.596     117.495     278.082
  C       19.467     116.279     278.020
  C       18.880     115.106     278.253
  O       15.814     114.729     275.801
  O       13.470     113.857     276.259
  H       19.551     111.320     281.152
  H       13.778     113.229     275.580
  H       18.946     117.132     277.617
  H       17.827     114.966     278.042
  H       19.721     111.966     278.901
  H       18.735     113.433     281.124
  H       16.658     113.943     279.986
  H       16.718     111.054     278.974
  H       22.581     117.509     278.304
  H       15.682     112.319     276.927
  H       21.174     118.321     277.683
  H       14.636     111.874     278.298
  P       15.166     113.325     282.074
  C       15.716     115.188     283.750
  O       16.227     114.296     282.778
  O       14.194     112.668     282.997
  O       14.412     114.312     281.057
  H       13.566     114.589     281.455
  H       16.531     115.485     284.416
  H       14.924     114.718     284.341
  H       15.321     116.080     283.253
  H       12.623     117.345     277.860
  H       12.579     115.723     278.510
  H       12.127     116.010     276.846

 3  4  5  6  7  8  9  10  11  12  13  23  27  28  29  30  32 0
 6-311+G(2d,p)
 ****
 34  35 0
 6-311+G(2d,p)
 ****
 1  2  14  15  16  17  18  19  20  21  22  24  25  26 0
 3-21G
 ****
 31  33  36  37  38  39  40  41  42  43  44  45  46 0
 3-21G
 ****


