%nproc=1
%NoSave
%Mem=1900MB
#P OB98/GEN NMR

erre ene a

0 1
  C       18.419     787.433    -297.733
  O       18.102     788.492    -298.622
  H       19.068     786.707    -298.233
  H       18.945     787.846    -296.865
  H       17.504     786.942    -297.392
  P       17.313     788.104    -299.963
  C       15.015     789.004    -299.141
  O       15.788     787.868    -299.516
  C       14.538     788.839    -297.697
  O       15.672     788.670    -296.817
  C       13.763     790.029    -297.155
  O       12.405     790.027    -297.570
  C       13.883     789.791    -295.657
  O       12.970     788.751    -295.256
  C       15.336     789.293    -295.541
  N       17.842     791.823    -291.861
  C       16.937     790.821    -291.810
  N       16.312     790.211    -292.837
  C       16.706     790.720    -294.013
  C       17.611     791.754    -294.220
  C       18.204     792.310    -293.067
  N       19.117     793.352    -293.120
  N       17.729     792.034    -295.570
  C       16.937     791.172    -296.161
  N       16.289     790.363    -295.270
  O       17.830     786.617    -300.285
  O       17.491     789.036    -301.114
  H       13.177     787.967    -295.806
  H       17.677     786.413    -301.228
  H       16.675     790.469    -290.816
  H       16.803     791.088    -297.236
  H       15.459     788.532    -294.759
  H       13.655     790.670    -295.059
  H       14.257     790.986    -297.403
  H       13.932     787.917    -297.641
  H       14.150     789.093    -299.804
  H       19.332     793.793    -292.237
  H       19.266     793.816    -293.997
  H       15.638     789.901    -299.237
  P       12.050     790.763    -298.948
  C       11.290     788.739    -300.419
  O       12.326     789.682    -300.105
  O       13.242     791.806    -299.122
  O       10.705     791.418    -298.981
  H       12.963     792.569    -299.670
  H       11.623     788.092    -301.203
  H       10.414     789.264    -300.738
  H       11.061     788.158    -299.550

 6  7  8  9  10  11  12  13  14  15  25  28  32  33  34  35 0
 6-311+G(2d,p)
 ****
 36  39  40 0
 6-311+G(2d,p)
 ****
 1  2  3  4  5  16  17  18  19  20  21  22  23  24 0
 3-21G
 ****
 26  27  29  30  31  37  38  41  42  43  44  45  46  47 0
 3-21G
 ****
 48 0
 3-21G
 ****


