%nproc=1
%NoSave
%Mem=1900MB
#P OB98/GEN NMR

erre ene a

0 1
  C      501.314     181.494    -383.098
  O      500.089     181.086    -382.510
  H      501.923     181.980    -382.332
  H      501.122     182.206    -383.905
  H      501.852     180.622    -383.484
  P      499.054     180.333    -383.472
  C      500.063     177.930    -383.589
  O      499.891     179.193    -384.225
  C      499.022     176.925    -384.104
  O      499.181     176.785    -385.546
  C      499.168     175.523    -383.503
  O      497.862     174.909    -383.491
  C      500.040     174.829    -384.535
  O      500.035     173.431    -384.349
  C      499.412     175.383    -385.810
  N      500.862     172.166    -389.504
  C      499.956     172.040    -388.514
  N      499.615     172.949    -387.573
  C      500.302     174.090    -387.745
  C      501.249     174.369    -388.717
  C      501.529     173.333    -389.631
  N      502.461     173.452    -390.643
  N      501.748     175.648    -388.567
  C      501.104     176.136    -387.516
  N      500.225     175.223    -386.992
  O      498.762     181.410    -384.619
  O      497.799     179.859    -382.816
  H      500.610     172.991    -385.006
  H      497.954     181.912    -384.408
  H      499.434     171.086    -388.465
  H      501.243     177.131    -387.107
  H      498.441     174.922    -386.012
  H      501.084     175.152    -384.444
  H      499.578     175.518    -382.484
  H      498.019     177.336    -383.936
  H      499.942     178.066    -382.506
  H      501.073     177.556    -383.795
  H      502.607     172.660    -391.248
  H      502.974     174.319    -390.732
  P      497.441     173.994    -382.235
  C      496.606     175.817    -380.549
  O      497.593     174.859    -380.893
  O      498.681     172.982    -382.131
  O      496.156     173.240    -382.383
  H      498.382     172.141    -381.736
  H      496.875     176.292    -379.629
  H      495.660     175.330    -380.436
  H      496.538     176.552    -381.323

 6  7  8  9  10  11  12  13  14  15  25  28  32  33  34  35 0
 6-311+G(2d,p)
 ****
 36  37  40 0
 6-311+G(2d,p)
 ****
 1  2  3  4  5  16  17  18  19  20  21  22  23  24 0
 3-21G
 ****
 26  27  29  30  31  38  39 41  42  43  44  45  46  47  48 0
 3-21G
 ****


