%nproc=1
%NoSave
%Mem=1900MB
#P OB98/GEN NMR

erre ene a

0 1
  C        7.508    -166.216       1.730
  O        8.152    -167.426       1.374
  P        9.728    -167.442       1.088
  C        9.372    -166.723      -1.387
  O        9.990    -166.455      -0.148
  C       10.320    -166.418      -2.556
  O       10.607    -164.998      -2.536
  C       11.672    -167.119      -2.484
  O       12.266    -167.094      -3.784
  C       12.445    -166.208      -1.555
  O       13.854    -166.382      -1.676
  C       11.913    -164.805      -1.942
  N       11.816    -163.918      -0.768
  C       12.958    -163.198      -0.426
  O       13.987    -163.218      -1.099
  N       12.903    -162.520       0.761
  C       11.855    -162.540       1.634
  O       11.935    -162.194       2.807
  C       10.605    -163.114       1.111
  C       10.648    -163.791      -0.039
  O        9.962    -168.900       0.471
  O       10.585    -167.201       2.283
  H       14.275    -165.679      -1.127
  H       10.263    -169.514       1.164
  H       13.778    -162.117       1.077
  H        9.709    -163.018       1.710
  H        9.751    -164.271      -0.425
  H       12.566    -164.319      -2.679
  H       12.171    -166.438      -0.517
  H       11.628    -168.145      -2.106
  H        9.815    -166.648      -3.502
  H        8.456    -166.130      -1.469
  H        9.066    -167.774      -1.441
  P       13.005    -168.424      -4.295
  C       15.262    -167.714      -3.294
  O       14.227    -168.677      -3.288
  O       13.350    -168.461      -5.746
  O       11.972    -169.586      -3.898
  H       12.167    -170.389      -4.416
  H       15.719    -167.680      -2.301
  H       14.881    -166.719      -3.543
  H       16.022    -168.006      -4.024
  H        6.465    -166.398       1.881
  H        7.635    -165.500       0.945
  H        7.938    -165.835       2.633

 3  4  5  6  7  8  9  10  11  12  13  23  28  29  30  31  32 0
 6-311+G(2d,p)
 ****
 33  34 0
 6-311+G(2d,p)
 ****
 1  2  14  15  16  17  18  19  20  21  22  24  25  26  27 0
 3-21G
 ****
 35  36  37  38  39  40  41  42  43  44  45 0
 3-21G
 ****


