%nproc=1
%NoSave
%Mem=1900MB
#P OB98/GEN NMR

erre ene a

0 1
  C      -60.452     -77.458       2.072
  O      -60.523     -78.378       0.996
  P      -59.320     -78.498      -0.057
  C      -59.872     -76.042      -0.581
  O      -59.525     -77.312      -1.121
  C      -60.131     -75.035      -1.700
  O      -60.533     -73.776      -1.111
  C      -58.907     -74.765      -2.568
  O      -59.333     -74.563      -3.918
  C      -58.357     -73.451      -2.041
  O      -57.613     -72.754      -3.055
  C      -59.638     -72.750      -1.579
  N      -61.629     -68.971       1.267
  C      -62.162     -69.733       0.288
  N      -61.568     -70.701      -0.444
  C      -60.303     -70.890      -0.037
  C      -59.623     -70.193       0.951
  C      -60.340     -69.187       1.620
  N      -59.798     -68.418       2.627
  N      -58.324     -70.649       1.065
  C      -58.231     -71.614       0.178
  N      -59.403     -71.806      -0.505
  O      -59.142     -79.848      -0.660
  O      -58.026     -78.034       0.756
  H      -56.869     -73.334      -3.317
  H      -57.254     -78.577       0.504
  H      -63.205     -69.537       0.057
  H      -57.342     -72.195      -0.017
  H      -60.129     -72.222      -2.406
  H      -57.679     -73.646      -1.202
  H      -58.167     -75.571      -2.525
  H      -60.968     -75.396      -2.309
  H      -59.038     -75.690       0.033
  H      -60.421     -67.808       3.130
  H      -58.902     -68.694       3.006
  H      -60.755     -76.147       0.058
  P      -58.558     -75.427      -5.036
  C      -57.332     -73.338      -5.988
  O      -58.248     -74.385      -6.211
  O      -59.305     -76.668      -5.402
  O      -57.152     -75.679      -4.313
  H      -56.960     -74.985      -3.645
  H      -57.285     -72.716      -6.886
  H      -56.335     -73.743      -5.795
  H      -57.653     -72.720      -5.146
  H      -61.344     -77.527       2.659
  H      -60.354     -76.465       1.686
  H      -59.604     -77.688       2.683

 3  4  5  6  7  8  9  10  11  12  22  25  29  30  31  32 0
 6-311+G(2d,p)
 ****
 33  36  37 0
 6-311+G(2d,p)
 ****
 1  2  13  14  15  16  17  18  19  20  21  23  24  26 0
 3-21G
 ****
 27  28  34  35  38  39  40  41  42  43  44  45  46  47  48 0
 3-21G
 ****


