%nproc=1
%NoSave
%Mem=1900MB
#P OB98/GEN NMR

erre ene a

0 1
  C      101.579    -148.833      24.643
  O      102.874    -148.745      25.202
  H      100.938    -149.399      25.325
  H      101.620    -149.355      23.684
  H      101.154    -147.835      24.504
  P      103.949    -147.853      24.415
  C      105.326    -147.130      26.503
  O      105.289    -147.880      25.298
  C      106.560    -147.519      27.318
  O      106.403    -148.891      27.770
  C      107.864    -147.446      26.515
  O      108.915    -146.991      27.373
  C      108.111    -148.892      26.123
  O      109.473    -149.184      25.839
  C      107.574    -149.625      27.356
  N      107.239    -151.020      27.078
  C      108.167    -151.987      27.448
  O      109.211    -151.760      28.058
  N      107.856    -153.273      27.087
  C      106.753    -153.672      26.392
  O      106.542    -154.836      26.078
  C      105.814    -152.603      26.021
  C      106.096    -151.347      26.374
  O      103.409    -146.360      24.617
  O      104.149    -148.201      22.979
  H      102.803    -146.115      23.892
  H      110.021    -148.774      26.539
  H      108.518    -153.987      27.350
  H      104.931    -152.880      25.460
  H      105.432    -150.534      26.103
  H      108.299    -149.575      28.176
  H      107.520    -149.145      25.235
  H      107.791    -146.795      25.644
  H      106.609    -146.887      28.213
  H      104.426    -147.345      27.087
  H      105.351    -146.062      26.264
  P      109.592    -145.577      27.024
  C      109.878    -144.769      29.493
  O      110.498    -145.198      28.294
  O      108.338    -144.593      27.121
  O      110.299    -145.579      25.709
  H      107.714    -144.829      27.829
  H      110.628    -144.561      30.227
  H      109.229    -145.539      29.854
  H      109.309    -143.883      29.303

 6  7  8  9  10  11  12  13  14  15  16  27  31  32  33  34  35 0
 6-311+G(2d,p)
 ****
 36  37 0
 6-311+G(2d,p)
 ****
 1  2  3  4  5  17  18  19  20  21  22  23  24  25 0
 3-21G
 ****
 26  28  29  30  38  39  40  41  42  43  44  45 0
 3-21G
 ****


