%nproc=1
%NoSave
%Mem=1900MB
#P OB98/GEN NMR

erre ene a

0 1
  C     -919.727     454.624     124.891
  O     -921.025     454.765     125.460
  P     -921.276     456.007     126.448
  C     -923.771     455.462     126.010
  O     -922.791     455.856     126.951
  C     -925.158     455.441     126.638
  O     -925.425     456.689     127.317
  C     -926.302     455.254     125.649
  O     -926.513     453.902     125.310
  C     -927.475     455.764     126.480
  O     -927.905     454.760     127.407
  C     -926.845     456.944     127.232
  N     -930.428     460.267     125.696
  C     -930.526     459.020     126.237
  N     -929.528     458.204     126.601
  C     -928.320     458.747     126.336
  C     -928.082     459.989     125.760
  C     -929.196     460.772     125.444
  N     -929.093     462.049     124.907
  N     -926.724     460.196     125.643
  C     -926.160     459.123     126.147
  N     -927.080     458.227     126.593
  O     -921.337     457.255     125.453
  O     -920.242     456.187     127.507
  H     -928.093     453.951     126.883
  H     -921.119     458.084     125.928
  H     -931.524     458.655     126.390
  H     -925.080     458.969     126.220
  H     -927.222     457.023     128.276
  H     -928.344     456.037     125.875
  H     -926.175     455.893     124.766
  H     -925.172     454.632     127.399
  H     -923.528     454.470     125.621
  H     -929.936     462.611     124.882
  H     -928.186     462.496     124.901
  H     -923.754     456.174     125.160
  P     -927.271     453.626     123.906
  C     -926.318     451.191     123.918
  O     -927.452     452.039     123.849
  O     -926.137     453.911     122.819
  O     -928.489     454.441     123.708
  H     -926.531     454.181     121.964
  H     -926.627     450.185     124.174
  H     -925.615     451.547     124.668
  H     -925.805     451.172     122.936
  H     -919.706     453.761     124.259
  H     -919.005     454.511     125.673
  H     -919.494     455.494     124.313

 3  4  5  6  7  8  9  10  11  12  22  25  29  30  31  32 0
 6-311+G(2d,p)
 ****
 33  36  37 0
 6-311+G(2d,p)
 ****
 1  2  13  14  15  16  17  18  19  20  21  23  24  26 0
 3-21G
 ****
 27  28  34  35  38  39  40  41  42  43  44  45  46  47  48 0
 3-21G
 ****


