%nproc=1
%NoSave
%Mem=1900MB
#P OB98/GEN NMR

erre ene a

0 1
  C      -68.536    -180.102      58.377
  O      -68.385    -179.741      59.744
  P      -69.488    -180.165      60.827
  C      -67.775    -180.031      62.742
  O      -69.014    -179.547      62.231
  C      -67.344    -179.225      63.967
  O      -66.863    -177.930      63.531
  C      -68.476    -178.984      64.963
  O      -67.942    -179.020      66.289
  C      -68.932    -177.564      64.674
  O      -69.534    -176.964      65.835
  C      -67.624    -176.912      64.214
  N      -69.980    -172.404      63.499
  C      -69.951    -173.244      64.555
  N      -69.324    -174.435      64.668
  C      -68.632    -174.713      63.551
  C      -68.558    -173.950      62.395
  C      -69.280    -172.744      62.388
  N      -69.300    -171.880      61.312
  N      -67.773    -174.574      61.444
  C      -67.358    -175.679      62.029
  N      -67.841    -175.802      63.303
  O      -69.807    -181.622      60.868
  O      -70.772    -179.286      60.460
  H      -69.584    -176.000      65.668
  H      -71.589    -179.807      60.587
  H      -70.510    -172.914      65.431
  H      -66.721    -176.424      61.571
  H      -67.027    -176.554      65.064
  H      -69.679    -177.572      63.872
  H      -69.291    -179.710      64.865
  H      -66.504    -179.744      64.450
  H      -67.017    -179.928      61.958
  H      -69.744    -170.983      61.444
  H      -68.646    -172.048      60.559
  H      -67.872    -181.095      62.989
  P      -68.620    -180.086      67.292
  C      -66.362    -180.582      68.487
  O      -67.677    -180.082      68.587
  O      -68.866    -181.404      66.629
  O      -69.945    -179.297      67.732
  H      -69.830    -178.321      67.645
  H      -65.894    -180.532      69.478
  H      -65.776    -179.968      67.799
  H      -66.369    -181.623      68.151
  H      -67.704    -179.731      57.816
  H      -69.441    -179.679      57.994
  H      -68.577    -181.168      58.292

 3  4  5  6  7  8  9  10  11  12  22  25  29  30  31  32 0
 6-311+G(2d,p)
 ****
 33  36  37 0
 6-311+G(2d,p)
 ****
 1  2  13  14  15  16  17  18  19  20  21  23  24  26 0
 3-21G
 ****
 27  28  34  35  38  39  40  41  42  43  44  45  46  47  48 0
 3-21G
 ****


