%nproc=1
%NoSave
%Mem=1900MB
#P OB98/GEN NMR

erre ene a

0 1
  C      706.872    -572.631      -2.767
  O      706.957    -572.423      -1.369
  H      705.830    -572.787      -3.061
  H      707.258    -571.741      -3.278
  H      707.480    -573.492      -3.053
  P      706.407    -573.601      -0.428
  C      704.083    -572.989      -1.400
  O      704.964    -574.029      -0.999
  C      702.856    -573.592      -2.101
  O      703.309    -574.305      -3.278
  C      702.039    -574.553      -1.237
  O      700.679    -574.107      -1.142
  C      702.050    -575.863      -2.019
  O      700.790    -576.548      -2.005
  C      702.439    -575.429      -3.429
  N      702.641    -577.934      -7.874
  C      702.187    -576.692      -7.559
  N      702.259    -576.043      -6.386
  C      702.898    -576.798      -5.468
  C      703.425    -578.064      -5.644
  C      703.257    -578.639      -6.908
  N      703.673    -579.923      -7.207
  N      704.003    -578.520      -4.464
  C      703.782    -577.565      -3.587
  N      703.093    -576.507      -4.144
  O      706.051    -572.848       0.947
  O      707.357    -574.733      -0.206
  H      700.726    -577.003      -1.146
  H      706.427    -573.343       1.696
  H      701.699    -576.152      -8.379
  H      704.044    -577.600      -2.538
  H      701.573    -575.107      -4.026
  H      702.797    -576.531      -1.589
  H      702.458    -574.694      -0.236
  H      702.229    -572.765      -2.458
  H      704.594    -572.315      -2.094
  H      703.408    -580.308      -8.105
  H      704.039    -580.504      -6.465
  H      703.783    -572.423      -0.516
  P      700.368    -572.973      -0.047
  C      698.215    -573.966       1.046
  O      699.604    -573.691       1.178
  O      699.222    -572.094      -0.732
  O      701.556    -572.152       0.330
  H      699.238    -571.188      -0.394
  H      697.859    -574.440       1.937
  H      698.058    -574.614       0.209
  H      697.683    -573.050       0.893

 6  7  8  9  10  11  12  13  14  15  25  28  32  33  34  35 0
 6-311+G(2d,p)
 ****
 36  39  40 0
 6-311+G(2d,p)
 ****
 1  2  3  4  5  16  17  18  19  20  21  22  23  24 0
 3-21G
 ****
 26  27  29  30  31  37  38  41  42  43  44  45  46  47  48 0
 3-21G
 ****


