%nproc=1
%NoSave
%Mem=1900MB
#P OB98/GEN NMR

erre ene a

0 1
  C     -827.666     384.653    -340.256
  O     -828.276     385.397    -339.221
  H     -826.601     384.911    -340.278
  H     -828.100     384.919    -341.225
  H     -827.766     383.582    -340.077
  P     -829.837     385.133    -338.909
  C     -829.297     384.774    -336.415
  O     -829.892     384.228    -337.585
  C     -828.427     383.726    -335.719
  O     -827.343     383.343    -336.609
  C     -827.799     384.225    -334.414
  O     -827.791     383.154    -333.466
  C     -826.371     384.564    -334.806
  O     -825.466     384.476    -333.708
  C     -826.097     383.537    -335.912
  N     -821.487     382.498    -337.698
  C     -822.293     381.790    -336.824
  N     -821.783     380.635    -336.334
  N     -823.494     382.176    -336.462
  C     -823.878     383.336    -337.038
  C     -823.181     384.133    -337.906
  C     -821.848     383.706    -338.283
  O     -821.089     384.305    -339.044
  N     -823.905     385.257    -338.238
  C     -825.036     385.128    -337.578
  N     -825.065     383.985    -336.830
  O     -830.636     384.613    -340.054
  O     -830.371     386.551    -338.408
  H     -825.769     385.122    -333.040
  H     -830.846     387.021    -339.119
  H     -820.571     382.178    -337.927
  H     -825.852     385.838    -337.602
  H     -825.772     382.567    -335.509
  H     -826.333     385.585    -335.208
  H     -820.878     380.277    -336.580
  H     -828.323     385.079    -333.985
  H     -822.364     380.081    -335.710
  H     -829.035     382.831    -335.541
  H     -830.094     385.101    -335.751
  H     -828.687     385.639    -336.692
  P     -829.063     382.963    -332.497
  C     -829.684     380.463    -332.577
  O     -829.958     381.761    -333.082
  O     -829.807     384.205    -332.158
  O     -828.408     382.292    -331.189
  H     -828.929     382.570    -330.418
  H     -830.340     379.755    -333.039
  H     -829.837     380.453    -331.518
  H     -828.669     380.203    -332.793

 6  7  8  9  10  11  12  13  14  15  26  29  33  34 0
 6-311+G(2d,p)
 ****
 36  38  39  40  41 0
 6-311+G(2d,p)
 ****
 1  2  3  4  5  16  17  18  19  20  21  22  23  24  25 0
 3-21G
 ****
 27  28  30  31  32  35  37  42  43  44  45  46  47 0
 3-21G
 ****
 48  49 0
 3-21G
 ****


