%nproc=1
%NoSave
%Mem=1900MB
#P OB98/GEN NMR

erre ene a

0 1
  C      -69.653      78.702      79.348
  O      -70.895      78.936      78.706
  P      -70.939      80.088      77.589
  C      -72.032      81.511      79.476
  O      -71.149      81.476      78.361
  C      -71.473      82.431      80.559
  O      -70.234      81.900      81.071
  C      -71.146      83.840      80.086
  O      -72.323      84.616      79.930
  C      -70.222      84.304      81.208
  O      -70.996      84.692      82.355
  C      -69.428      83.023      81.517
  N      -64.723      85.036      81.342
  C      -65.797      85.320      82.110
  N      -67.022      84.756      82.082
  C      -67.081      83.796      81.145
  C      -66.077      83.412      80.273
  C      -64.846      84.074      80.396
  N      -63.754      83.783      79.606
  N      -66.514      82.409      79.432
  C      -67.759      82.184      79.800
  N      -68.143      82.986      80.840
  O      -72.347      79.845      76.872
  O      -69.803      80.064      76.614
  H      -70.390      84.707      83.123
  H      -72.297      80.065      75.922
  H      -65.654      86.105      82.847
  H      -68.415      81.451      79.351
  H      -69.241      82.892      82.588
  H      -69.598      85.159      80.927
  H      -70.595      83.809      79.139
  H      -72.200      82.464      81.382
  H      -72.139      80.503      79.890
  H      -62.961      84.406      79.659
  H      -63.892      83.170      78.814
  H      -73.015      81.854      79.139
  P      -72.538      85.350      78.518
  C      -72.392      87.446      79.997
  O      -71.998      86.842      78.778
  O      -74.123      85.550      78.495
  O      -71.953      84.642      77.347
  H      -74.456      85.932      79.328
  H      -71.917      88.428      80.069
  H      -72.074      86.833      80.845
  H      -73.478      87.576      80.017
  H      -69.764      77.915      80.064
  H      -69.335      79.594      79.846
  H      -68.922      78.421      78.619

 3  4  5  6  7  8  9  10  11  12  22  25  29  30  31  32 0
 6-311+G(2d,p)
 ****
 33  36  37 0
 6-311+G(2d,p)
 ****
 1  2  13  14  15  16  17  18  19  20  21  23  24  26 0
 3-21G
 ****
 27  28  34  35  38  39  40  41  42  43  44  45  46  47  48 0
 3-21G
 ****


