%nproc=1
%NoSave
%Mem=1900MB
#P OB98/GEN NMR

erre ene a

0 1
  C     -243.088    -404.254    -194.098
  O     -243.228    -405.672    -194.217
  P     -243.112    -406.541    -192.870
  C     -243.541    -409.100    -193.196
  O     -242.650    -408.009    -193.333
  C     -244.426    -409.242    -194.440
  O     -243.615    -409.079    -195.642
  C     -245.154    -410.586    -194.548
  O     -246.448    -410.313    -195.108
  C     -244.307    -411.359    -195.541
  O     -245.029    -412.409    -196.162
  C     -243.868    -410.228    -196.478
  N     -242.695    -410.578    -197.277
  C     -242.928    -411.260    -198.466
  O     -244.045    -411.639    -198.813
  N     -241.820    -411.539    -199.222
  C     -240.527    -411.273    -198.873
  O     -239.570    -411.543    -199.589
  C     -240.336    -410.651    -197.553
  C     -241.414    -410.340    -196.827
  O     -244.649    -406.716    -192.475
  O     -242.258    -405.895    -191.832
  H     -245.239    -406.827    -193.242
  H     -244.399    -413.079    -196.494
  H     -241.968    -412.006    -200.102
  H     -239.321    -410.481    -197.215
  H     -241.308    -409.902    -195.844
  H     -244.683    -409.958    -197.158
  H     -243.437    -411.792    -195.028
  H     -245.268    -411.089    -193.585
  H     -245.156    -408.425    -194.432
  H     -244.184    -408.948    -192.322
  H     -242.966    -410.013    -193.012
  P     -247.735    -410.425    -194.146
  C     -249.631    -409.372    -195.609
  O     -249.023    -410.532    -195.093
  O     -247.809    -408.916    -193.606
  O     -247.616    -411.427    -193.048
  H     -247.728    -408.255    -194.312
  H     -250.326    -409.664    -196.405
  H     -248.889    -408.691    -196.035
  H     -250.193    -408.863    -194.824
  H     -243.186    -403.804    -195.064
  H     -242.125    -404.023    -193.693
  H     -243.848    -403.874    -193.448

 3  4  5  6  7  8  9  10  11  12  13  24  28  29  30  31  32 0
 6-311+G(2d,p)
 ****
 33  34 0
 6-311+G(2d,p)
 ****
 1  2  14  15  16  17  18  19  20  21  22  23  25  26  27 0
 3-21G
 ****
 35  36  37  38  39  40  41  42  43  44  45 0
 3-21G
 ****


