%nproc=1
%NoSave
%Mem=1900MB
#P OB98/GEN NMR

erre ene a

0 1
  C     -484.063    -891.140    -255.969
  O     -484.237    -892.360    -256.692
  P     -485.676    -892.720    -257.290
  C     -485.287    -894.870    -258.681
  O     -485.807    -894.310    -257.477
  C     -485.157    -896.390    -258.543
  O     -484.039    -896.750    -257.689
  C     -486.369    -897.040    -257.884
  O     -487.562    -897.060    -258.628
  C     -485.813    -898.380    -257.421
  O     -485.807    -899.340    -258.483
  C     -484.362    -898.010    -257.031
  N     -484.175    -897.910    -255.590
  C     -483.547    -898.990    -254.987
  O     -483.207    -900.000    -255.600
  N     -483.362    -898.890    -253.625
  C     -483.754    -897.870    -252.837
  O     -483.575    -897.840    -251.628
  C     -484.421    -896.740    -253.512
  C     -484.595    -896.820    -254.846
  O     -486.113    -891.920    -258.458
  O     -486.650    -892.460    -256.032
  H     -485.295    -898.950    -259.233
  H     -487.460    -892.020    -256.364
  H     -482.894    -899.680    -253.176
  H     -484.754    -895.910    -252.928
  H     -485.091    -896.010    -255.370
  H     -483.653    -898.740    -257.417
  H     -486.393    -898.810    -256.597
  H     -486.602    -896.470    -256.972
  H     -484.949    -896.820    -259.513
  H     -484.324    -894.430    -258.918
  H     -485.968    -894.600    -259.506
  P     -488.992    -896.690    -258.015
  C     -488.898    -894.250    -258.891
  O     -489.606    -895.460    -258.848
  O     -489.113    -896.630    -256.533
  O     -489.888    -897.930    -258.539
  H     -490.570    -898.110    -257.866
  H     -489.463    -893.540    -259.492
  H     -487.920    -894.390    -259.350
  H     -488.785    -893.850    -257.871
  H     -483.047    -891.060    -255.643
  H     -484.712    -891.134    -255.118
  H     -484.300    -890.312    -256.604

 3  4  5  6  7  8  9  10  11  12  13  23  28  29  30  31  32 0
 6-311+G(2d,p)
 ****
 33  34 0
 6-311+G(2d,p)
 ****
 1  2  14  15  16  17  18  19  20  21  22  24  25  26  27 0
 3-21G
 ****
 35  36  37  38  39  40  41  42  43  44  45 0
 3-21G
 ****


