%nproc=1
%NoSave
%Mem=1900MB
#P OB98/GEN NMR

erre ene a

0 1
  C       -6.290    -107.828      37.517
  O       -7.415    -108.673      37.383
  H       -6.388    -107.263      38.448
  H       -6.250    -107.125      36.681
  H       -5.371    -108.419      37.555
  P       -7.382    -109.729      36.170
  C       -9.103    -108.393      34.707
  O       -7.786    -108.892      34.864
  C       -9.456    -108.271      33.224
  O      -10.888    -108.429      33.072
  C       -9.065    -106.929      32.605
  O       -8.623    -107.158      31.266
  C      -10.368    -106.149      32.596
  O      -10.366    -105.121      31.606
  C      -11.396    -107.268      32.383
  N      -12.726    -106.901      32.866
  C      -13.639    -106.445      31.910
  O      -13.302    -106.348      30.730
  N      -14.893    -106.069      32.317
  C      -15.190    -106.079      33.580
  N      -16.443    -105.674      33.922
  C      -14.241    -106.501      34.629
  C      -13.045    -106.905      34.205
  O       -8.681    -110.613      36.476
  O       -6.113    -110.505      36.069
  H      -10.422    -105.550      30.723
  H       -9.447    -110.092      36.766
  H      -14.530    -106.477      35.669
  H      -12.290    -107.240      34.907
  H      -11.475    -107.522      31.318
  H      -10.525    -105.673      33.572
  H       -8.289    -106.404      33.161
  H       -8.990    -109.106      32.688
  H      -17.057    -105.373      33.175
  H       -9.198    -107.414      35.186
  H      -16.764    -105.592      34.875
  H       -9.789    -109.086      35.205
  P       -7.055    -107.282      30.969
  C       -6.602    -104.754      30.739
  O       -6.322    -105.942      31.463
  O       -6.687    -107.733      29.595
  O       -6.570    -108.356      32.062
  H       -5.901    -108.931      31.643
  H       -6.055    -103.939      31.166
  H       -7.650    -104.545      30.788
  H       -6.312    -104.882      29.717

 6  7  8  9  10  11  12  13  14  15  16  26  30  31  32  33  35 0
 6-311+G(2d,p)
 ****
 37  38 0
 6-311+G(2d,p)
 ****
 1  2  3  4  5  17  18  19  20  21  22  23  24  25 0
 3-21G
 ****
 27  28  29  34  36  39  40  41  42  43  44  45  46 0
 3-21G
 ****


