%nproc=1
%NoSave
%Mem=1900MB
#P OB98/GEN NMR

erre ene a

0 1
  C      -38.101      14.880     -24.931
  O      -39.410      15.093     -24.432
  P      -40.591      15.375     -25.479
  C      -39.821      17.846     -25.924
  O      -40.078      16.553     -26.439
  C      -39.558      18.831     -27.068
  O      -38.397      18.381     -27.820
  C      -40.718      18.977     -28.060
  O      -40.735      20.343     -28.496
  C      -40.307      18.059     -29.198
  O      -40.946      18.383     -30.422
  C      -38.789      18.274     -29.203
  N      -38.051      17.198     -29.864
  C      -37.821      17.312     -31.231
  O      -38.219      18.251     -31.917
  N      -37.128      16.277     -31.806
  C      -36.713      15.139     -31.178
  O      -36.113      14.235     -31.746
  C      -37.027      15.052     -29.745
  C      -37.661      16.072     -29.163
  O      -41.675      16.079     -24.540
  O      -41.069      14.153     -26.188
  H      -41.276      16.644     -23.855
  H      -40.414      18.012     -31.149
  H      -36.917      16.356     -32.790
  H      -36.728      14.157     -29.214
  H      -37.904      16.031     -28.107
  H      -38.547      19.232     -29.679
  H      -40.564      17.025     -28.943
  H      -41.684      18.716     -27.618
  H      -39.303      19.805     -26.631
  H      -38.941      17.811     -25.276
  H      -40.673      18.171     -25.318
  P      -42.159      21.087     -28.607
  C      -42.022      21.148     -31.221
  O      -42.744      20.784     -30.066
  O      -41.672      22.612     -28.727
  O      -43.078      20.862     -27.452
  H      -40.969      22.733     -29.385
  H      -42.403      20.576     -32.070
  H      -40.955      20.936     -31.108
  H      -42.164      22.214     -31.422
  H      -37.432      14.707     -24.114
  H      -37.782      15.744     -25.476
  H      -38.101      14.029     -25.579

 3  4  5  6  7  8  9  10  11  12  13  24  28  29  30  31  32 0
 6-311+G(2d,p)
 ****
 33  34 0
 6-311+G(2d,p)
 ****
 1  2  14  15  16  17  18  19  20  21  22  23  25  26  27 0
 3-21G
 ****
 35  36  37  38  39  40  41  42  43  44  45 0
 3-21G
 ****


