%nproc=1
%NoSave
%Mem=1900MB
#P OB98/GEN NMR

erre ene a

0 1
  C       35.648      48.092       2.913
  O       34.643      47.553       3.748
  H       36.290      48.742       3.511
  H       35.186      48.686       2.120
  H       36.260      47.297       2.477
  P       33.796      46.323       3.160
  C       31.761      47.814       2.550
  O       32.780      46.944       2.083
  C       30.511      47.676       1.687
  O       30.827      47.925       0.301
  C       29.861      46.298       1.738
  O       29.008      46.164       2.867
  C       29.058      46.317       0.448
  O       27.867      47.112       0.628
  C       30.020      47.029      -0.514
  N       30.296      43.483      -4.128
  C       29.192      44.119      -3.595
  N       27.991      43.752      -4.089
  N       29.258      45.029      -2.658
  C       30.522      45.278      -2.242
  C       31.693      44.708      -2.689
  C       31.607      43.716      -3.735
  O       32.556      43.131      -4.250
  N       32.783      45.213      -2.029
  C       32.269      46.069      -1.169
  N       30.901      46.144      -1.256
  O       32.849      45.927       4.391
  O       34.603      45.157       2.699
  H       27.455      46.824       1.463
  H       33.211      45.129       4.822
  H       30.189      42.782      -4.841
  H       32.841      46.663      -0.470
  H       29.491      47.642      -1.252
  H       28.732      45.322       0.140
  H       27.867      43.043      -4.794
  H       30.607      45.495       1.695
  H       27.168      44.208      -3.714
  H       29.799      48.451       2.002
  H       32.124      48.846       2.505
  H       31.527      47.561       3.589
  P       28.826      44.706       3.511
  C       26.594      44.088       2.346
  O       27.986      43.830       2.459
  O       27.781      44.974       4.693
  O       30.075      44.076       4.021
  H       28.221      44.860       5.558
  H       26.168      43.435       1.613
  H       26.443      45.105       2.048
  H       26.122      43.919       3.291

 6  7  8  9  10  11  12  13  14  15  26  29  33  34 0
 6-311+G(2d,p)
 ****
 36  38  39  40  41 0
 6-311+G(2d,p)
 ****
 1  2  3  4  5  16  17  18  19  20  21  22  23  24  25 0
 3-21G
 ****
 27  28  30  31  32  35  37  42  43  44  45  46  47 0
 3-21G
 ****
 48  49 0
 3-21G
 ****


