%nproc=1
%NoSave
%Mem=1900MB
#P OB98/GEN NMR

erre ene a

0 1
  C      446.120     -22.875     146.191
  O      447.064     -23.913     146.357
  H      445.209     -23.137     146.733
  H      445.879     -22.775     145.128
  H      446.504     -21.930     146.577
  P      448.592     -23.583     145.996
  C      450.164     -21.607     146.624
  O      449.069     -22.432     147.012
  C      450.822     -20.985     147.856
  O      449.788     -20.338     148.662
  C      451.557     -21.992     148.755
  O      452.733     -21.371     149.285
  C      450.572     -22.202     149.894
  O      451.209     -22.658     151.090
  C      449.973     -20.803     150.013
  N      447.754     -19.002     154.146
  C      448.956     -18.660     153.544
  N      449.715     -17.733     154.174
  N      449.375     -19.180     152.424
  C      448.510     -20.077     151.889
  C      447.303     -20.506     152.385
  C      446.851     -19.935     153.638
  O      445.813     -20.210     154.226
  N      446.753     -21.478     151.579
  C      447.642     -21.648     150.607
  N      448.724     -20.824     150.759
  O      448.463     -22.820     144.592
  O      449.498     -24.766     145.904
  H      451.687     -23.483     150.877
  H      448.581     -23.456     143.860
  H      447.485     -18.581     155.020
  H      447.560     -22.358     149.796
  H      450.645     -20.100     150.528
  H      449.807     -22.933     149.604
  H      449.440     -17.264     155.026
  H      451.822     -22.932     148.250
  H      450.573     -17.441     153.727
  H      451.507     -20.197     147.518
  H      449.798     -20.808     145.968
  H      450.885     -22.214     146.063
  P      453.885     -20.929     148.259
  C      455.126     -18.734     147.611
  O      454.121     -19.351     148.402
  O      453.164     -21.065     146.836
  O      455.113     -21.774     148.336
  H      453.813     -21.350     146.163
  H      455.155     -17.686     147.825
  H      454.904     -18.881     146.575
  H      456.076     -19.170     147.838

 6  7  8  9  10  11  12  13  14  15  26  29  33  34 0
 6-311+G(2d,p)
 ****
 36  38  39  40  41 0
 6-311+G(2d,p)
 ****
 1  2  3  4  5  16  17  18  19  20  21  22  23  24  25 0
 3-21G
 ****
 27  28  30  31  32  35  37  42  43  44  45  46  47 0
 3-21G
 ****
 48  49 0
 3-21G
 ****


