%nproc=1
%NoSave
%Mem=1900MB
#P OB98/GEN NMR

erre ene a

0 1
  C     -288.867    -362.636     -15.601
  O     -289.041    -363.709     -14.690
  P     -289.542    -365.121     -15.261
  C     -291.951    -365.942     -15.906
  O     -291.016    -364.879     -15.845
  C     -292.696    -365.922     -17.248
  O     -291.722    -365.827     -18.329
  C     -293.567    -367.157     -17.522
  O     -294.723    -366.714     -18.238
  C     -292.669    -368.006     -18.410
  O     -293.401    -368.948     -19.182
  C     -291.975    -366.919     -19.238
  N     -290.725    -367.363     -19.860
  C     -290.796    -367.892     -21.144
  O     -291.836    -368.022     -21.777
  N     -289.600    -368.302     -21.678
  C     -288.387    -368.297     -21.048
  O     -287.349    -368.697     -21.570
  C     -288.388    -367.775     -19.675
  C     -289.531    -367.331     -19.155
  O     -289.791    -365.931     -13.900
  O     -288.584    -365.758     -16.210
  H     -290.126    -365.374     -13.179
  H     -294.122    -368.479     -19.634
  H     -289.614    -368.654     -22.626
  H     -287.443    -367.766     -19.130
  H     -289.562    -366.943     -18.143
  H     -292.658    -366.541     -20.013
  H     -291.956    -368.559     -17.787
  H     -293.872    -367.660     -16.596
  H     -293.307    -365.004     -17.285
  H     -292.676    -365.838     -15.102
  H     -291.427    -366.895     -15.776
  P     -296.048    -367.626     -18.178
  C     -296.913    -369.563     -19.719
  O     -295.815    -368.875     -19.155
  O     -297.064    -366.705     -19.015
  O     -296.545    -367.931     -16.803
  H     -296.689    -366.390     -19.850
  H     -296.565    -370.135     -20.587
  H     -297.694    -368.877     -20.042
  H     -297.322    -370.259     -18.981
  H     -288.532    -361.769     -15.071
  H     -289.798    -362.422     -16.082
  H     -288.139    -362.908     -16.337

 3  4  5  6  7  8  9  10  11  12  13  24  28  29  30  31  32 0
 6-311+G(2d,p)
 ****
 33  34 0
 6-311+G(2d,p)
 ****
 1  2  14  15  16  17  18  19  20  21  22  23  25  26  27 0
 3-21G
 ****
 35  36  37  38  39  40  41  42  43  44  45 0
 3-21G
 ****


