%nproc=1
%NoSave
%Mem=1900MB
#P OB98/GEN NMR

erre ene a

0 1
  C     -190.633    -156.365    -252.794
  O     -191.106    -155.425    -253.749
  P     -192.576    -155.662    -254.356
  C     -191.678    -156.604    -256.601
  O     -192.414    -156.861    -255.409
  C     -191.455    -157.896    -257.380
  O     -190.724    -158.836    -256.567
  C     -192.728    -158.618    -257.789
  O     -193.306    -158.052    -258.957
  C     -192.199    -160.018    -258.062
  O     -191.627    -160.070    -259.382
  C     -191.099    -160.168    -256.998
  N     -190.850    -164.646    -254.644
  C     -190.270    -164.234    -255.825
  N     -189.491    -165.136    -256.462
  N     -190.440    -163.048    -256.345
  C     -191.212    -162.235    -255.582
  C     -191.847    -162.528    -254.394
  C     -191.690    -163.865    -253.857
  O     -192.235    -164.306    -252.850
  N     -192.529    -161.444    -253.913
  C     -192.283    -160.486    -254.784
  N     -191.512    -160.929    -255.834
  O     -192.793    -154.379    -255.288
  O     -193.661    -155.808    -253.345
  H     -192.334    -159.837    -260.012
  H     -193.747    -154.201    -255.390
  H     -190.674    -165.566    -254.284
  H     -192.639    -159.470    -254.696
  H     -190.200    -160.633    -257.416
  H     -192.977    -160.785    -258.020
  H     -189.215    -166.019    -256.047
  H     -193.447    -158.653    -256.962
  H     -189.025    -164.841    -257.310
  H     -190.841    -157.663    -258.257
  H     -190.707    -156.175    -256.339
  H     -192.230    -155.882    -257.208
  P     -194.882    -157.737    -258.899
  C     -195.453    -160.002    -260.037
  O     -195.599    -159.169    -258.902
  O     -195.187    -157.145    -260.353
  O     -195.280    -156.798    -257.810
  H     -195.969    -156.557    -260.320
  H     -194.453    -159.911    -260.473
  H     -196.205    -159.731    -260.784
  H     -195.606    -161.041    -259.735
  H     -189.650    -156.087    -252.477
  H     -190.603    -157.339    -253.236
  H     -191.290    -156.377    -251.949

 3  4  5  6  7  8  9  10  11  12  23  26  30  31  33  0
 6-311+G(2d,p)
 ****
 35  36  37  38 0
 6-311+G(2d,p)
 ****
 1  2  13  14  15  16  17  18  19  20  21  22  24  25  27  28  29 0
 3-21G
 ****
 32  34  39  40  41  42  43  44  45  46  47  48  49 0
 3-21G
 ****


