%nproc=1
%NoSave
%Mem=1900MB
#P OB98/GEN NMR

erre ene a

0 1
  C     -132.250    -251.262     130.076
  O     -132.763    -250.209     129.279
  P     -134.087    -250.482     128.422
  C     -132.690    -251.553     126.512
  O     -133.782    -251.692     127.411
  C     -133.032    -252.148     125.145
  O     -133.121    -253.594     125.253
  C     -134.365    -251.652     124.575
  O     -134.270    -251.574     123.145
  C     -135.328    -252.775     124.903
  O     -136.456    -252.770     124.029
  C     -134.414    -253.990     124.753
  N     -137.823    -257.722     124.728
  C     -137.431    -256.883     123.702
  N     -138.105    -257.005     122.536
  N     -136.464    -256.011     123.807
  C     -135.885    -255.998     125.033
  C     -136.174    -256.789     126.123
  C     -137.257    -257.742     125.997
  O     -137.671    -258.490     126.873
  N     -135.349    -256.508     127.178
  C     -134.589    -255.522     126.750
  N     -134.900    -255.153     125.466
  O     -134.164    -249.202     127.463
  O     -135.334    -250.621     129.228
  H     -137.091    -253.426     124.380
  H     -134.863    -248.598     127.772
  H     -138.583    -258.368     124.600
  H     -133.821    -255.024     127.331
  H     -134.288    -254.272     123.700
  H     -135.693    -252.669     125.931
  H     -138.903    -257.609     122.413
  H     -134.697    -250.686     124.970
  H     -137.867    -256.371     121.784
  H     -132.210    -251.929     124.453
  H     -131.823    -252.073     126.921
  H     -132.436    -250.492     126.406
  P     -134.879    -250.248     122.472
  C     -137.306    -251.180     122.338
  O     -136.424    -250.218     122.885
  O     -134.906    -250.604     120.913
  O     -134.102    -249.005     122.759
  H     -134.868    -249.790     120.378
  H     -137.701    -251.798     123.150
  H     -136.813    -251.824     121.606
  H     -138.136    -250.662     121.850
  H     -131.370    -250.928     130.585
  H     -132.006    -252.096     129.451
  H     -132.986    -251.557     130.794

 3  4  5  6  7  8  9  10  11  12  23  26  30  31 0
 6-311+G(2d,p)
 ****
 33  35  36  37  38 0
 6-311+G(2d,p)
 ****
 1  2  13  14  15  16  17  18  19  20  21  22  24  25 0
 3-21G
 ****
 27  28  29  32  34  39  40  41  42  43  44  45  46  47  48  49 0
 3-21G
 ****


