%nproc=1
%NoSave
%Mem=1900MB
#P OB98/GEN NMR

erre ene a

0 1
  C      -16.913    -188.816    -413.764
  O      -15.582    -188.368    -413.616
  H      -17.074    -189.673    -413.102
  H      -17.092    -189.127    -414.795
  H      -17.612    -188.021    -413.485
  P      -15.134    -187.111    -414.505
  C      -13.555    -186.767    -416.541
  O      -14.183    -187.699    -415.662
  C      -13.623    -187.273    -417.983
  O      -12.673    -188.363    -418.151
  C      -15.008    -187.795    -418.396
  O      -15.253    -187.425    -419.762
  C      -14.843    -189.305    -418.318
  O      -15.785    -189.990    -419.136
  C      -13.390    -189.452    -418.765
  N      -12.852    -194.235    -420.248
  C      -13.425    -193.158    -420.890
  N      -13.948    -193.385    -422.114
  N      -13.494    -191.959    -420.374
  C      -12.912    -191.867    -419.153
  C      -12.321    -192.861    -418.408
  C      -12.271    -194.188    -418.983
  O      -11.792    -195.185    -418.450
  N      -11.878    -192.369    -417.201
  C      -12.206    -191.085    -417.220
  N      -12.830    -190.740    -418.384
  O      -14.111    -186.323    -413.556
  O      -16.244    -186.234    -414.988
  H      -16.686    -189.719    -418.851
  H      -14.131    -185.363    -413.744
  H      -12.832    -195.141    -420.685
  H      -12.012    -190.381    -416.420
  H      -13.275    -189.365    -419.852
  H      -14.970    -189.640    -417.281
  H      -13.904    -194.275    -422.588
  H      -15.819    -187.430    -417.766
  H      -14.367    -192.607    -422.614
  H      -13.291    -186.465    -418.647
  H      -12.509    -186.651    -416.240
  H      -14.063    -185.799    -416.460
  P      -16.775    -187.205    -420.207
  C      -18.684    -188.609    -421.268
  O      -17.323    -188.570    -420.859
  O      -16.645    -186.213    -421.469
  O      -17.640    -186.605    -419.150
  H      -16.954    -185.328    -421.229
  H      -18.905    -189.571    -421.680
  H      -18.856    -187.856    -422.009
  H      -19.316    -188.429    -420.423

 6  7  8  9  10  11  12  13  14  15  26  29  33  34 0
 6-311+G(2d,p)
 ****
 36  38  39  40  41 0
 6-311+G(2d,p)
 ****
 1  2  3  4  5  16  17  18  19  20  21  22  23  24  25 0
 3-21G
 ****
 27  28  30  31  32  35  37  42  43  44  45  46  47 0
 3-21G
 ****
 48  49 0
 3-21G
 ****


