%nproc=1
%NoSave
%Mem=1900MB
#P OB98/GEN NMR

erre ene a

0 1
  C        4.965      45.153    -133.010
  O        5.430      46.071    -133.984
  P        4.631      47.444    -134.183
  C        4.893      48.001    -131.657
  O        4.014      47.859    -132.761
  C        4.776      49.405    -131.060
  O        5.623      49.497    -129.875
  C        5.205      50.528    -132.016
  O        4.382      51.670    -131.738
  C        6.629      50.808    -131.575
  O        7.103      52.080    -131.988
  C        6.479      50.642    -130.059
  N        7.760      50.475    -129.375
  C        8.169      51.497    -128.525
  O        7.522      52.522    -128.321
  N        9.401      51.336    -127.949
  C       10.281      50.323    -128.203
  O       11.416      50.299    -127.744
  C        9.794      49.272    -129.109
  C        8.576      49.393    -129.644
  O        3.352      47.003    -135.038
  O        5.407      48.525    -134.856
  H        8.072      52.079    -131.885
  H        3.481      47.220    -135.980
  H        9.709      52.061    -127.322
  H       10.458      48.443    -129.315
  H        8.201      48.642    -130.332
  H        5.952      51.508    -129.636
  H        7.297      50.047    -131.996
  H        5.135      50.255    -133.073
  H        3.741      49.559    -130.731
  H        5.919      47.838    -131.992
  H        4.663      47.240    -130.903
  P        3.874      52.550    -132.982
  C        2.143      50.720    -133.675
  O        3.239      51.530    -134.039
  O        5.274      52.969    -133.642
  O        3.027      53.715    -132.587
  H        5.905      52.231    -133.680
  H        1.476      51.234    -132.978
  H        2.510      49.801    -133.211
  H        1.580      50.461    -134.575
  H        5.601      44.292    -132.999
  H        3.966      44.855    -133.249
  H        4.978      45.618    -132.047

 3  4  5  6  7  8  9  10  11  12  13  23  28  29  30  31  32 0
 6-311+G(2d,p)
 ****
 33  34 0
 6-311+G(2d,p)
 ****
 1  2  14  15  16  17  18  19  20  21  22  24  25  26 0
 3-21G
 ****
 27  35  36  37  38  39  40  41  42  43  44  45 0
 3-21G
 ****


