%nproc=1
%NoSave
%Mem=1900MB
#P OB98/GEN NMR

erre ene a

0 1
  C      -78.963     -41.471     197.748
  O      -80.363     -41.546     197.538
  P      -80.864     -41.997     196.080
  C      -82.809     -40.271     195.942
  O      -81.565     -40.719     195.415
  C      -82.871     -38.744     195.915
  O      -81.637     -38.189     196.413
  C      -83.056     -38.143     194.528
  O      -84.396     -38.279     194.084
  C      -82.614     -36.706     194.787
  O      -83.670     -35.972     195.426
  C      -81.442     -36.903     195.764
  N      -77.143     -34.234     194.983
  C      -78.271     -33.946     195.670
  N      -79.381     -34.699     195.812
  C      -79.252     -35.865     195.160
  C      -78.172     -36.288     194.401
  C      -77.076     -35.416     194.324
  N      -75.928     -35.711     193.618
  N      -78.410     -37.534     193.860
  C      -79.608     -37.864     194.296
  N      -80.152     -36.895     195.097
  O      -82.092     -42.968     196.403
  O      -79.825     -42.667     195.236
  H      -83.318     -35.085     195.643
  H      -82.149     -43.687     195.744
  H      -78.283     -32.983     196.173
  H      -80.118     -38.790     194.066
  H      -81.414     -36.138     196.546
  H      -82.346     -36.166     193.871
  H      -82.378     -38.618     193.809
  H      -83.684     -38.427     196.580
  H      -82.912     -40.610     196.977
  H      -75.254     -34.970     193.492
  H      -75.937     -36.524     193.016
  H      -83.621     -40.706     195.352
  P      -84.659     -39.230     192.817
  C      -85.330     -37.047     191.638
  O      -84.553     -38.230     191.563
  O      -86.232     -39.488     192.927
  O      -83.801     -40.444     192.755
  H      -86.730     -38.662     193.060
  H      -85.125     -36.439     190.752
  H      -85.065     -36.475     192.532
  H      -86.394     -37.299     191.655
  H      -78.769     -41.161     198.754
  H      -78.538     -40.762     197.068
  H      -78.525     -42.433     197.581

 3  4  5  6  7  8  9  10  11  12  22  25  29  30  31  32 0
 6-311+G(2d,p)
 ****
 33  36  37 0
 6-311+G(2d,p)
 ****
 1  2  13  14  15  16  17  18  19  20  21  23  24  26 0
 3-21G
 ****
 27  28  34  35  38  39  40  41  42  43  44  45  46  47  48 0
 3-21G
 ****


