%nproc=1
%NoSave
%Mem=1900MB
#P OB98/GEN NMR

erre ene a

0 1
  C     -412.854    -102.822      38.008
  O     -412.523    -103.260      36.691
  P     -411.875    -104.713      36.510
  C     -409.544    -104.009      37.390
  O     -410.671    -104.871      37.558
  C     -408.245    -104.736      37.762
  O     -408.199    -106.003      37.057
  C     -406.958    -103.991      37.369
  O     -406.396    -103.076      38.303
  C     -405.969    -105.157      37.260
  O     -405.464    -105.498      38.559
  C     -406.825    -106.303      36.729
  N     -403.611    -107.664      32.981
  C     -403.448    -107.578      34.320
  N     -404.355    -107.207      35.245
  C     -405.532    -106.917      34.675
  C     -405.845    -106.972      33.325
  C     -404.823    -107.361      32.452
  N     -404.981    -107.440      31.084
  N     -407.168    -106.602      33.112
  C     -407.624    -106.319      34.318
  N     -406.694    -106.501      35.295
  O     -411.555    -105.119      35.104
  O     -413.001    -105.679      37.136
  H     -406.245    -105.649      39.129
  H     -413.046    -106.495      36.612
  H     -402.462    -107.835      34.696
  H     -408.630    -105.968      34.523
  H     -406.577    -107.263      37.205
  H     -405.099    -104.905      36.638
  H     -407.070    -103.510      36.398
  H     -408.238    -104.944      38.845
  H     -409.671    -103.127      38.024
  H     -404.173    -107.691      30.526
  H     -405.857    -107.170      30.674
  H     -409.554    -103.662      36.357
  P     -406.767    -101.516      38.266
  C     -404.394    -101.156      37.206
  O     -405.779    -100.862      37.182
  O     -406.767    -100.830      39.597
  O     -408.173    -101.512      37.516
  H     -408.137    -101.766      36.574
  H     -403.943    -100.802      36.276
  H     -404.226    -102.238      37.289
  H     -403.928    -100.644      38.046
  H     -413.274    -101.839      37.962
  H     -411.970    -102.804      38.611
  H     -413.566    -103.494      38.439

 3  4  5  6  7  8  9  10  11  12  22  25  29  30  31  32 0
 6-311+G(2d,p)
 ****
 33  36  37 0
 6-311+G(2d,p)
 ****
 1  2  13  14  15  16  17  18  19  20  21  23  24  26 0
 3-21G
 ****
 27  28  34  35  38  39  40  41  42  43  44  45  46  47  48 0
 3-21G
 ****


