%nproc=1
%NoSave
%Mem=1900MB
#P OB98/GEN NMR

erre ene a

0 1
  C      165.224    -267.696      28.283
  O      164.360    -266.577      28.439
  P      163.196    -266.289      27.384
  C      161.349    -265.629      29.127
  O      162.166    -265.259      28.039
  C      161.322    -264.474      30.141
  O      162.589    -264.371      30.816
  C      161.042    -263.134      29.459
  O      159.657    -262.828      29.507
  C      161.901    -262.170      30.255
  O      161.231    -261.786      31.467
  C      163.137    -263.044      30.573
  N      164.186    -263.167      29.545
  C      165.185    -262.200      29.459
  O      165.270    -261.238      30.217
  N      166.086    -262.359      28.429
  C      166.104    -263.396      27.542
  O      166.752    -263.404      26.497
  C      165.207    -264.510      27.853
  C      164.289    -264.341      28.807
  O      162.380    -267.663      27.358
  O      163.650    -265.884      26.017
  H      161.120    -262.596      31.999
  H      162.644    -268.206      26.594
  H      166.725    -261.586      28.275
  H      165.284    -265.417      27.257
  H      163.589    -265.140      29.031
  H      163.627    -262.711      31.493
  H      162.079    -261.250      29.700
  H      161.403    -263.160      28.420
  H      160.555    -264.684      30.899
  H      161.736    -266.536      29.599
  H      160.334    -265.849      28.780
  P      158.926    -262.266      28.199
  C      157.117    -261.318      29.751
  O      158.034    -261.033      28.714
  O      158.204    -263.280      27.372
  O      160.119    -261.578      27.382
  H      160.448    -262.189      26.690
  H      156.713    -260.376      30.130
  H      157.612    -261.844      30.568
  H      156.294    -261.925      29.359
  H      165.931    -267.715      29.086
  H      165.744    -267.618      27.351
  H      164.647    -268.597      28.295

 3  4  5  6  7  8  9  10  11  12  13  23  28  29  30  31  32 0
 6-311+G(2d,p)
 ****
 33  34 0
 6-311+G(2d,p)
 ****
 1  2  14  15  16  17  18  19  20  21  22  24  25  26  27 0
 3-21G
 ****
 35  36  37  38  39  40  41  42  43  44  45 0
 3-21G
 ****


