%nproc=1
%NoSave
%Mem=1900MB
#P OB98/GEN NMR

erre ene a

0 1
  C      191.394     -23.511      72.878
  O      190.243     -23.616      73.691
  H      192.061     -22.759      73.306
  H      191.111     -23.197      71.869
  H      191.920     -24.468      72.834
  P      189.178     -24.750      73.305
  C      188.957     -25.277      75.845
  O      188.293     -25.004      74.621
  C      187.928     -25.562      76.940
  O      187.236     -24.324      77.259
  C      186.866     -26.587      76.523
  O      186.527     -27.394      77.655
  C      185.681     -25.721      76.135
  O      184.431     -26.392      76.213
  C      185.820     -24.569      77.136
  N      185.120     -23.362      76.703
  C      183.851     -23.135      77.226
  O      183.309     -23.837      78.080
  N      183.193     -22.042      76.725
  C      183.655     -21.193      75.764
  O      183.007     -20.243      75.339
  C      184.998     -21.489      75.244
  C      185.657     -22.544      75.729
  O      190.069     -26.075      73.205
  O      188.385     -24.498      72.068
  H      190.400     -26.197      72.294
  H      184.452     -27.142      75.583
  H      182.271     -21.863      77.096
  H      185.395     -20.842      74.474
  H      186.643     -22.798      75.356
  H      185.454     -24.876      78.123
  H      185.805     -25.356      75.108
  H      187.191     -27.224      75.701
  H      188.453     -25.882      77.848
  H      189.557     -24.407      76.131
  H      189.618     -26.139      75.713
  P      186.135     -28.926      77.380
  C      187.370     -29.812      79.507
  O      186.144     -29.648      78.814
  O      187.451     -29.464      76.654
  O      184.872     -29.071      76.598
  H      188.272     -29.084      77.010
  H      187.190     -30.309      80.438
  H      187.806     -28.853      79.693
  H      188.040     -30.399      78.913

 6  7  8  9  10  11  12  13  14  15  16  27  31  32  33  34  35 0
 6-311+G(2d,p)
 ****
 36  37 0
 6-311+G(2d,p)
 ****
 1  2  3  4  5  17  18  19  20  21  22  23  24  25 0
 3-21G
 ****
 26  28  29  30  38  39  40  41  42  43  44  45 0
 3-21G
 ****


