%nproc=1
%NoSave
%Mem=1900MB
#P OB98/GEN NMR

erre ene a

0 1
  C       11.930     371.245     -23.002
  O       13.127     370.496     -23.077
  H       11.099     370.565     -22.803
  H       11.746     371.756     -23.953
  H       11.992     371.981     -22.192
  P       14.478     371.320     -23.348
  C       15.465     372.625     -25.370
  O       14.430     371.775     -24.885
  C       15.492     372.580     -26.896
  O       15.804     371.239     -27.338
  C       14.157     372.921     -27.549
  O       13.910     374.320     -27.582
  C       14.340     372.306     -28.932
  O       15.060     373.183     -29.802
  C       15.169     371.053     -28.631
  N       14.128     366.725     -31.130
  C       15.051     367.691     -31.342
  N       15.275     368.808     -30.618
  C       14.440     368.863     -29.566
  C       13.451     367.952     -29.221
  C       13.307     366.833     -30.057
  N       12.354     365.864     -29.858
  N       12.772     368.376     -28.092
  C       13.343     369.519     -27.759
  N       14.358     369.849     -28.613
  O       15.607     370.185     -23.317
  O       14.762     372.413     -22.367
  H       15.868     373.441     -29.322
  H       16.054     370.191     -22.449
  H       15.686     367.553     -32.210
  H       13.060     370.138     -26.917
  H       15.969     370.898     -29.364
  H       13.373     372.092     -29.391
  H       13.340     372.398     -27.028
  H       16.285     373.253     -27.255
  H       16.429     372.284     -24.982
  H       15.280     373.646     -25.016
  H       12.264     365.128     -30.536
  H       11.662     365.995     -29.128
  P       12.467     374.832     -27.120
  C       10.034     374.539     -28.015
  O       11.423     374.414     -28.265
  O       12.565     376.424     -27.255
  O       12.068     374.413     -25.746
  H       12.045     376.849     -26.545
  H        9.486     374.219     -28.877
  H        9.800     375.561     -27.803
  H        9.766     373.931     -27.176

 6  7  8  9  10  11  12  13  14  15  25  28  32  33  34  35 0
 6-311+G(2d,p)
 ****
 36  37  40 0
 6-311+G(2d,p)
 ****
 1  2  3  4  5  16  17  18  19  20  21  22  23  24 0
 3-21G
 ****
 26  27  29  30  31  38  39 41  42  43  44  45  46  47  48 0
 3-21G
 ****


