%nproc=1
%NoSave
%Mem=1900MB
#P OB98/GEN NMR

erre ene a

0 1
  C      238.436    -214.345      77.763
  O      239.088    -214.333      76.505
  P      239.194    -215.611      75.561
  C      239.903    -218.102      75.809
  O      239.824    -216.822      76.422
  C      240.948    -219.016      76.474
  O      240.756    -219.018      77.901
  C      240.744    -220.466      76.011
  O      241.295    -220.907      74.784
  C      241.108    -221.322      77.224
  O      242.439    -221.835      77.159
  C      240.965    -220.346      78.395
  N      239.680    -222.469      82.821
  C      240.922    -222.066      82.374
  N      241.971    -222.449      83.137
  N      241.111    -221.366      81.292
  C      239.975    -221.148      80.584
  C      238.683    -221.484      80.927
  C      238.485    -222.210      82.160
  O      237.409    -222.664      82.540
  N      237.794    -221.153      79.939
  C      238.543    -220.659      78.980
  N      239.881    -220.672      79.308
  O      239.695    -215.389      74.177
  O      237.646    -216.057      75.451
  H      243.054    -221.076      77.190
  H      237.507    -216.428      74.554
  H      239.602    -223.070      83.631
  H      238.179    -220.311      78.021
  H      241.883    -220.321      78.989
  H      240.443    -222.194      77.294
  H      241.873    -223.107      83.904
  H      239.664    -220.603      75.884
  H      242.907    -222.320      82.762
  H      241.962    -218.638      76.306
  H      240.137    -217.951      74.753
  H      238.923    -218.590      75.856
  P      240.654    -221.980      73.786
  C      239.305    -224.154      73.946
  O      240.111    -223.215      74.647
  O      241.914    -222.607      73.015
  O      239.676    -221.413      72.807
  H      241.625    -222.990      72.169
  H      238.751    -224.754      74.662
  H      239.940    -224.802      73.342
  H      238.587    -223.633      73.290
  H      238.497    -213.373      78.206
  H      238.910    -215.059      78.404
  H      237.408    -214.612      77.630

 3  4  5  6  7  8  9  10  11  12  23  26  30  31 0
 6-311+G(2d,p)
 ****
 33  35  36  37  38 0
 6-311+G(2d,p)
 ****
 1  2  13  14  15  16  17  18  19  20  21  22  24  25 0
 3-21G
 ****
 27  28  29  32  34  39  40  41  42  43  44  45  46  47  48  49 0
 3-21G
 ****


