%nproc=1
%NoSave
%Mem=1900MB
#P OB98/GEN NMR

erre ene a

0 1
  C      274.488    -278.131    -132.912
  O      275.735    -277.899    -132.289
  H      274.167    -277.209    -133.404
  H      273.734    -278.416    -132.175
  H      274.583    -278.915    -133.670
  P      276.372    -279.069    -131.399
  C      276.644    -281.003    -133.094
  O      277.280    -279.952    -132.382
  C      277.669    -282.044    -133.563
  O      276.969    -283.273    -133.902
  C      278.465    -281.613    -134.808
  O      279.754    -282.236    -134.726
  C      277.640    -282.232    -135.917
  O      278.345    -282.253    -137.134
  C      277.282    -283.579    -135.280
  N      276.180    -284.242    -135.958
  C      276.511    -284.989    -137.091
  O      277.679    -285.048    -137.476
  N      275.510    -285.626    -137.778
  C      274.277    -285.470    -137.407
  N      273.329    -286.113    -138.140
  C      273.878    -284.642    -136.250
  C      274.871    -284.067    -135.574
  O      275.409    -279.850    -130.566
  O      277.453    -278.316    -130.488
  H      279.274    -282.544    -136.996
  H      277.113    -278.230    -129.577
  H      272.835    -284.530    -135.993
  H      274.677    -283.438    -134.709
  H      278.148    -284.252    -135.278
  H      276.732    -281.647    -136.094
  H      278.574    -280.530    -134.891
  H      278.339    -282.279    -132.726
  H      273.645    -286.662    -138.932
  H      276.142    -280.559    -133.959
  H      272.339    -286.052    -137.959
  H      275.891    -281.488    -132.461
  P      281.124    -281.438    -134.973
  C      281.326    -280.131    -132.757
  O      281.849    -281.181    -133.566
  O      280.968    -280.210    -135.810
  O      282.092    -282.488    -135.702
  H      282.695    -282.006    -136.296
  H      281.893    -280.062    -131.852
  H      280.303    -280.338    -132.522
  H      281.390    -279.205    -133.289

 6  7  8  9  10  11  12  13  14  15  16  26  30  31  32  33  35 0
 6-311+G(2d,p)
 ****
 37  38 0
 6-311+G(2d,p)
 ****
 1  2  3  4  5  17  18  19  20  21  22  23  24  25 0
 3-21G
 ****
 27  28  29  34  36  39  40  41  42  43  44  45  46 0
 3-21G
 ****


