%nproc=1
%NoSave
%Mem=1900MB
#P OB98/GEN NMR

erre ene a

0 1
  C      485.776     239.097     -99.846
  O      486.509     239.729    -100.876
  H      486.153     239.419     -98.871
  H      484.727     239.385     -99.927
  H      485.854     238.011     -99.931
  P      488.087     239.442    -100.909
  C      489.407     241.655    -101.143
  O      488.749     240.596    -101.820
  C      489.481     242.886    -102.047
  O      490.501     242.640    -103.054
  C      488.169     243.217    -102.773
  O      487.830     244.604    -102.599
  C      488.473     242.973    -104.234
  O      487.793     243.876    -105.104
  C      489.991     243.152    -104.291
  N      492.215     243.773    -108.844
  C      492.075     244.610    -107.803
  N      491.562     244.356    -106.583
  C      491.187     243.069    -106.475
  C      491.285     242.084    -107.451
  C      491.807     242.482    -108.697
  N      491.893     241.643    -109.784
  N      490.787     240.882    -106.988
  C      490.364     241.137    -105.772
  N      490.564     242.450    -105.420
  O      488.203     238.125    -101.824
  O      488.705     239.231     -99.571
  H      488.051     244.781    -104.838
  H      488.595     237.407    -101.294
  H      492.419     245.624    -107.966
  H      489.861     240.437    -105.111
  H      490.272     244.209    -104.361
  H      488.181     241.945    -104.493
  H      487.329     242.596    -102.430
  H      489.822     243.743    -101.450
  H      490.424     241.340    -100.874
  H      492.168     242.043    -110.662
  H      491.491     240.718    -109.709
  H      488.857     241.889    -100.226
  P      486.751     244.939    -101.455
  C      486.309     247.391    -102.183
  O      486.798     246.522    -101.169
  O      487.400     244.285    -100.138
  O      485.394     244.371    -101.726
  H      486.772     243.654     -99.738
  H      486.401     248.406    -101.858
  H      485.280     247.171    -102.376
  H      486.878     247.250    -103.078

 6  7  8  9  10  11  12  13  14  15  25  28  32  33  34  35 0
 6-311+G(2d,p)
 ****
 36  39  40 0
 6-311+G(2d,p)
 ****
 1  2  3  4  5  16  17  18  19  20  21  22  23  24 0
 3-21G
 ****
 26  27  29  30  31  37  38  41  42  43  44  45  46  47  48 0
 3-21G
 ****


