%nproc=1
%NoSave
%Mem=1900MB
#P OB98/GEN NMR

erre ene a

0 1
  C       58.302     933.766     -44.965
  O       58.291     935.176     -44.939
  H       57.884     933.389     -44.029
  H       59.333     933.404     -45.062
  H       57.703     933.385     -45.801
  P       58.675     935.930     -46.307
  C       58.866     938.195     -45.043
  O       59.501     937.245     -45.889
  C       59.905     939.100     -44.387
  O       60.862     938.311     -43.633
  C       60.721     939.936     -45.368
  O       60.029     941.112     -45.771
  C       61.938     940.268     -44.522
  O       61.603     941.320     -43.590
  C       62.165     938.952     -43.768
  N       66.929     938.237     -45.351
  C       66.367     939.313     -44.702
  N       67.177     940.365     -44.448
  N       65.109     939.377     -44.336
  C       64.404     938.261     -44.672
  C       64.862     937.125     -45.312
  C       66.259     937.075     -45.692
  O       66.815     936.130     -46.249
  N       63.862     936.197     -45.457
  C       62.803     936.777     -44.934
  N       63.078     938.039     -44.441
  O       57.274     936.528     -46.809
  O       59.308     935.074     -47.354
  H       62.397     941.481     -43.044
  H       57.244     936.486     -47.783
  H       67.909     938.257     -45.616
  H       61.810     936.339     -44.875
  H       62.558     939.109     -42.763
  H       62.778     940.623     -45.116
  H       68.143     940.413     -44.741
  H       61.040     939.336     -46.237
  H       66.792     941.158     -43.949
  H       59.385     939.753     -43.671
  H       58.303     937.666     -44.266
  H       58.164     938.783     -45.643
  P       60.626     941.943     -47.017
  C       59.127     944.013     -46.503
  O       60.451     943.489     -46.618
  O       59.525     941.731     -48.153
  O       61.984     941.523     -47.459
  H       59.923     941.869     -49.044
  H       59.175     945.047     -46.233
  H       58.594     943.472     -45.749
  H       58.621     943.912     -47.440

 6  7  8  9  10  11  12  13  14  15  26  29  33  34 0
 6-311+G(2d,p)
 ****
 36  38  39  40  41 0
 6-311+G(2d,p)
 ****
 1  2  3  4  5  16  17  18  19  20  21  22  23  24  25 0
 3-21G
 ****
 27  28  30  31  32  35  37  42  43  44  45  46  47 0
 3-21G
 ****
 48  49 0
 3-21G
 ****


