%nproc=1
%NoSave
%Mem=1900MB
#P OB98/GEN NMR

erre ene a

0 1
  C      156.235    -175.691      91.268
  O      156.469    -176.840      92.094
  P      155.889    -178.244      91.582
  C      156.627    -180.746      91.690
  O      156.800    -179.421      92.183
  C      157.419    -181.738      92.543
  O      158.827    -181.433      92.514
  C      157.031    -181.706      94.013
  O      155.824    -182.407      94.225
  C      158.251    -182.354      94.673
  O      158.095    -183.782      94.775
  C      159.404    -181.988      93.713
  N      160.364    -181.076      94.313
  C      161.374    -181.667      95.078
  O      161.407    -182.890      95.229
  N      162.311    -180.855      95.669
  C      162.223    -179.561      95.532
  N      163.178    -178.808      96.147
  C      161.152    -178.900      94.755
  C      160.269    -179.708      94.182
  O      156.258    -178.251      90.025
  O      154.418    -178.408      91.808
  H      157.665    -184.058      93.948
  H      155.576    -178.730      89.521
  H      161.115    -177.818      94.681
  H      159.446    -179.304      93.598
  H      159.946    -182.896      93.411
  H      158.392    -181.983      95.698
  H      156.937    -180.666      94.359
  H      157.269    -182.749      92.137
  H      163.892    -179.294      96.670
  H      156.951    -180.805      90.646
  H      163.200    -177.795      96.111
  H      155.550    -180.987      91.698
  P      154.532    -181.565      94.636
  C      152.202    -181.221      93.599
  O      153.390    -181.997      93.592
  O      154.908    -180.091      94.122
  O      154.139    -181.564      96.082
  H      154.228    -179.447      94.405
  H      151.606    -181.487      92.711
  H      152.442    -180.163      93.560
  H      151.616    -181.442      94.494
  H      156.673    -174.828      91.725
  H      155.182    -175.540      91.157
  H      156.676    -175.847      90.306

 3  4  5  6  7  8  9  10  11  12  13  21  23  27  28  29  30  32 0
 6-311+G(2d,p)
 ****
 34  35 0
 6-311+G(2d,p)
 ****
 1  2  14  15  16  17  18  19  20  22  24  25  26 0
 3-21G
 ****
 31  33  36  37  38  39  40  41  42  43  44  45  46 0
 3-21G
 ****


