%nproc=1
%NoSave
%Mem=1900MB
#P OB98/GEN NMR

erre ene a

0 1
  C      119.014      59.418      47.520
  O      118.496      59.481      48.833
  H      120.105      59.441      47.572
  H      118.671      60.284      46.948
  H      118.704      58.495      47.022
  P      116.940      59.130      49.015
  C      117.683      56.648      48.886
  O      116.745      57.631      48.476
  C      116.961      55.440      49.474
  O      117.842      54.297      49.516
  C      116.455      55.643      50.899
  O      115.200      56.312      50.917
  C      116.311      54.202      51.355
  O      115.110      53.631      50.791
  C      117.547      53.544      50.726
  N      120.680      50.662      53.482
  C      119.532      50.317      52.797
  N      119.161      49.020      52.862
  N      118.808      51.164      52.113
  C      119.285      52.430      52.156
  C      120.407      52.897      52.804
  C      121.206      51.946      53.541
  O      122.238      52.200      54.157
  N      120.571      54.244      52.620
  C      119.539      54.596      51.881
  N      118.726      53.533      51.575
  O      116.242      60.033      47.889
  O      116.377      59.416      50.365
  H      115.192      53.696      49.822
  H      115.844      60.816      48.315
  H      121.195      49.972      54.000
  H      119.339      55.601      51.537
  H      117.360      52.506      50.430
  H      116.226      54.109      52.439
  H      119.660      48.320      53.388
  H      117.196      56.155      51.524
  H      118.324      48.744      52.364
  H      116.131      55.186      48.802
  H      118.347      57.081      49.642
  H      118.279      56.341      48.020
  P      114.652      56.858      52.322
  C      116.785      58.255      52.792
  O      115.936      57.202      53.224
  O      114.059      55.537      53.003
  O      113.625      57.932      52.229
  H      113.085      55.600      53.057
  H      117.592      58.370      53.485
  H      116.226      59.166      52.741
  H      117.177      58.023      51.824

 6  7  8  9  10  11  12  13  14  15  26  29  33  34 0
 6-311+G(2d,p)
 ****
 36  38  39  40  41 0
 6-311+G(2d,p)
 ****
 1  2  3  4  5  16  17  18  19  20  21  22  23  24  25 0
 3-21G
 ****
 27  28  30  31  32  35  37  42  43  44  45  46  47 0
 3-21G
 ****
 48  49 0
 3-21G
 ****


