%nproc=1
%NoSave
%Mem=1900MB
#P OB98/GEN NMR

erre ene a

0 1
  C     -137.917     -27.688     106.958
  O     -138.746     -28.631     107.637
  P     -139.942     -29.339     106.835
  C     -138.669     -31.333     105.830
  O     -139.655     -30.918     106.764
  C     -138.459     -32.853     105.837
  O     -138.393     -33.359     107.198
  C     -139.554     -33.647     105.110
  O     -138.915     -34.764     104.481
  C     -140.435     -34.105     106.255
  O     -141.275     -35.192     105.893
  C     -139.373     -34.410     107.315
  N     -139.927     -34.481     108.658
  C     -140.724     -35.585     108.963
  O     -141.018     -36.394     108.082
  N     -141.192     -35.723     110.248
  C     -141.005     -34.765     111.102
  N     -141.465     -34.948     112.371
  C     -140.321     -33.504     110.762
  C     -139.792     -33.441     109.545
  O     -140.300     -28.707     105.530
  O     -141.165     -29.251     107.869
  H     -141.845     -35.422     106.657
  H     -141.995     -29.127     107.367
  H     -140.262     -32.702     111.483
  H     -139.266     -32.563     109.201
  H     -138.863     -35.358     107.097
  H     -141.076     -33.277     106.582
  H     -140.083     -33.063     104.352
  H     -137.487     -33.060     105.368
  H     -141.954     -35.810     112.583
  H     -137.722     -30.839     106.065
  H     -141.313     -34.272     113.108
  H     -138.954     -30.981     104.831
  P     -138.604     -34.696     102.908
  C     -136.800     -32.884     102.436
  O     -137.078     -34.238     102.727
  O     -139.402     -33.369     102.476
  O     -139.067     -35.860     102.093
  H     -139.621     -33.428     101.526
  H     -135.738     -32.698     102.625
  H     -137.386     -32.211     103.069
  H     -137.011     -32.679     101.383
  H     -137.176     -27.314     107.633
  H     -138.517     -26.877     106.602
  H     -137.437     -28.166     106.130

 3  4  5  6  7  8  9  10  11  12  13  23  27  28  29  30  32 0
 6-311+G(2d,p)
 ****
 34  35 0
 6-311+G(2d,p)
 ****
 1  2  14  15  16  17  18  19  20  21  22  24  25  26 0
 3-21G
 ****
 31  33  36  37  38  39  40  41  42  43  44  45  46 0
 3-21G
 ****


