%nproc=1
%NoSave
%Mem=1900MB
#P OB98/GEN NMR

erre ene a

0 1
  C      188.152      17.318      71.890
  O      187.507      16.966      70.662
  P      188.263      15.863      69.771
  C      186.092      14.459      69.572
  O      187.156      15.102      68.884
  C      185.078      13.889      68.582
  O      184.144      14.918      68.142
  C      185.716      13.269      67.317
  O      184.900      12.129      66.949
  C      185.562      14.390      66.310
  O      185.733      13.983      64.963
  C      184.169      14.898      66.693
  N      183.149      17.500      62.410
  C      183.452      16.197      62.622
  N      183.708      15.582      63.803
  C      183.649      16.459      64.827
  C      183.360      17.816      64.754
  C      183.107      18.347      63.469
  N      182.835      19.664      63.240
  N      183.415      18.386      66.022
  C      183.787      17.396      66.816
  N      183.858      16.196      66.150
  O      188.731      14.759      70.834
  O      189.421      16.419      68.983
  H      185.097      13.257      64.765
  H      189.669      14.888      71.076
  H      183.472      15.570      61.743
  H      184.016      17.495      67.869
  H      183.381      14.216      66.351
  H      186.318      15.167      66.510
  H      186.750      12.935      67.460
  H      184.481      13.125      69.107
  H      185.598      15.163      70.239
  H      182.673      19.955      62.286
  H      182.801      20.334      64.001
  H      186.517      13.668      70.223
  P      185.530      10.664      67.082
  C      183.220       9.768      67.775
  O      184.278       9.678      66.834
  O      185.692      10.568      68.682
  O      186.777      10.402      66.315
  H      184.868      10.818      69.143
  H      182.410       9.121      67.439
  H      182.845      10.798      67.821
  H      183.567       9.450      68.768
  H      187.568      18.055      72.401
  H      189.124      17.715      71.682
  H      188.246      16.448      72.505

 3  4  5  6  7  8  9  10  11  12  22  25  29  30  31  32 0
 6-311+G(2d,p)
 ****
 33  36  37 0
 6-311+G(2d,p)
 ****
 1  2  13  14  15  16  17  18  19  20  21  23  24  26 0
 3-21G
 ****
 27  28  34  35  38  39  40  41  42  43  44  45  46  47  48 0
 3-21G
 ****


