%nproc=1
%NoSave
%Mem=1900MB
#P OB98/GEN NMR

erre ene a

0 1
  C      125.332      49.948     -68.517
  O      124.994      49.324     -67.296
  P      123.773      49.796     -66.378
  C      122.342      47.665     -65.971
  O      122.503      48.867     -66.714
  C      121.465      46.628     -66.687
  O      122.185      46.085     -67.813
  C      121.172      45.448     -65.753
  O      120.115      45.525     -64.818
  C      121.134      44.224     -66.661
  O      119.803      43.847     -67.018
  C      121.913      44.678     -67.899
  N      124.128      40.320     -69.255
  C      122.827      40.737     -69.465
  N      121.970      39.797     -69.922
  N      122.407      41.953     -69.226
  C      123.356      42.752     -68.678
  C      124.679      42.457     -68.440
  C      125.139      41.123     -68.749
  O      126.262      40.689     -68.500
  N      125.327      43.491     -67.810
  C      124.388      44.398     -67.632
  N      123.166      43.978     -68.106
  O      123.568      51.270     -66.240
  O      124.230      49.234     -64.935
  H      119.344      43.565     -66.203
  H      123.913      49.866     -64.261
  H      124.374      39.347     -69.389
  H      124.530      45.352     -67.137
  H      121.312      44.532     -68.808
  H      121.579      43.354     -66.161
  H      122.222      38.821     -69.980
  H      122.066      45.307     -65.131
  H      120.979      40.017     -69.926
  H      120.566      47.093     -67.104
  H      121.910      47.935     -65.001
  H      123.325      47.224     -65.770
  P      120.190      45.135     -63.266
  C      119.132      47.116     -62.038
  O      120.345      46.481     -62.411
  O      121.624      44.440     -63.101
  O      119.109      44.212     -62.800
  H      121.624      43.867     -62.313
  H      119.347      48.146     -61.740
  H      118.689      46.583     -61.188
  H      118.421      47.126     -62.872
  H      126.180      49.457     -68.946
  H      125.568      50.976     -68.339
  H      124.504      49.884     -69.192

 3  4  5  6  7  8  9  10  11  12  23  26  30  31 0
 6-311+G(2d,p)
 ****
 33  35  36  37  38 0
 6-311+G(2d,p)
 ****
 1  2  13  14  15  16  17  18  19  20  21  22  24  25 0
 3-21G
 ****
 27  28  29  32  34  39  40  41  42  43  44  45  46  47  48  49 0
 3-21G
 ****


