%nproc=1
%NoSave
%Mem=1900MB
#P OB98/GEN NMR

erre ene a

0 1
  C       33.035     -19.591     -92.776
  O       33.462     -18.280     -92.466
  H       33.309     -19.813     -93.810
  H       31.949     -19.656     -92.678
  H       33.515     -20.323     -92.120
  P       33.462     -17.866     -90.915
  C       35.892     -18.749     -90.689
  O       34.561     -18.791     -90.197
  C       36.856     -18.357     -89.574
  O       36.640     -19.182     -88.409
  C       38.330     -18.504     -89.936
  O       38.808     -17.371     -90.649
  C       38.954     -18.581     -88.553
  O       39.017     -17.260     -87.974
  C       37.933     -19.437     -87.791
  N       38.869     -23.568     -85.002
  C       38.713     -22.252     -84.611
  N       38.832     -22.001     -83.290
  N       38.469     -21.270     -85.439
  C       38.400     -21.666     -86.732
  C       38.544     -22.936     -87.243
  C       38.798     -24.014     -86.316
  O       38.933     -25.198     -86.610
  N       38.410     -22.949     -88.607
  C       38.209     -21.685     -88.922
  N       38.197     -20.866     -87.821
  O       32.067     -18.458     -90.393
  O       33.565     -16.404     -90.647
  H       38.099     -16.971     -87.822
  H       31.424     -17.727     -90.316
  H       39.067     -24.284     -84.325
  H       38.059     -21.314     -89.926
  H       37.856     -19.151     -86.736
  H       39.975     -18.967     -88.572
  H       39.041     -22.706     -82.601
  H       38.524     -19.437     -90.480
  H       38.718     -21.043     -82.981
  H       36.630     -17.322     -89.285
  H       35.950     -18.013     -91.497
  H       36.157     -19.736     -91.082
  P       40.095     -17.554     -91.588
  C       38.813     -17.048     -93.784
  O       39.560     -17.997     -93.037
  O       40.763     -18.889     -91.011
  O       41.057     -16.416     -91.578
  H       41.611     -18.675     -90.575
  H       38.525     -17.478     -94.720
  H       39.414     -16.180     -93.960
  H       37.938     -16.771     -93.235

 6  7  8  9  10  11  12  13  14  15  26  29  33  34 0
 6-311+G(2d,p)
 ****
 36  38  39  40  41 0
 6-311+G(2d,p)
 ****
 1  2  3  4  5  16  17  18  19  20  21  22  23  24  25 0
 3-21G
 ****
 27  28  30  31  32  35  37  42  43  44  45  46  47 0
 3-21G
 ****
 48  49 0
 3-21G
 ****


