%nproc=1
%NoSave
%Mem=1900MB
#P OB98/GEN NMR

erre ene a

0 1
  C      -34.429     -48.013      95.478
  O      -33.966     -46.737      95.872
  H      -33.622     -48.529      94.949
  H      -35.285     -47.922      94.802
  H      -34.708     -48.605      96.354
  P      -34.992     -45.745      96.598
  C      -35.405     -47.090      98.770
  O      -34.785     -45.956      98.174
  C      -35.400     -46.967     100.292
  O      -34.069     -47.174     100.806
  C      -35.837     -45.601     100.808
  O      -37.237     -45.453     100.702
  C      -35.289     -45.650     102.225
  O      -36.139     -46.432     103.079
  C      -33.934     -46.367     102.001
  N      -32.805     -45.451     101.882
  C      -32.362     -44.862     103.071
  O      -32.927     -45.112     104.135
  N      -31.302     -43.989     103.015
  C      -30.709     -43.760     101.886
  N      -29.664     -42.891     101.898
  C      -31.123     -44.387     100.615
  C      -32.172     -45.203     100.683
  O      -36.418     -45.821      96.147
  O      -34.369     -44.293      96.344
  H      -35.605     -46.647     103.870
  H      -34.765     -43.884      95.551
  H      -30.592     -44.175      99.698
  H      -32.539     -45.706      99.794
  H      -33.724     -47.057     102.827
  H      -35.209     -44.660     102.674
  H      -35.315     -44.805     100.265
  H      -36.038     -47.763     100.698
  H      -29.403     -42.500     102.799
  H      -34.832     -47.970      98.461
  H      -29.032     -42.763     101.123
  H      -36.432     -47.204      98.405
  P      -37.894     -44.215      99.922
  C      -39.680     -45.451      98.546
  O      -39.427     -44.622      99.670
  O      -37.156     -43.765      98.708
  O      -38.020     -43.085     101.047
  H      -37.139     -42.663     101.213
  H      -40.729     -45.654      98.481
  H      -39.145     -46.371      98.654
  H      -39.357     -44.953      97.656

 6  7  8  9  10  11  12  13  14  15  16  26  30  31  32  33  35 0
 6-311+G(2d,p)
 ****
 37  38 0
 6-311+G(2d,p)
 ****
 1  2  3  4  5  17  18  19  20  21  22  23  24  25 0
 3-21G
 ****
 27  28  29  34  36  39  40  41  42  43  44  45  46 0
 3-21G
 ****


