%nproc=1
%NoSave
%Mem=1900MB
#P OB98/GEN NMR

erre ene a

0 1
  C      -46.746      18.279      92.759
  O      -45.806      19.332      92.682
  H      -47.183      18.270      93.762
  H      -46.251      17.320      92.583
  H      -47.545      18.427      92.027
  P      -45.077      19.546      91.269
  C      -43.388      17.740      92.077
  O      -44.197      18.228      91.014
  C      -42.589      16.528      91.606
  O      -43.483      15.408      91.417
  C      -41.889      16.724      90.266
  O      -40.686      17.463      90.399
  C      -41.668      15.279      89.834
  O      -40.490      14.724      90.433
  C      -42.916      14.575      90.382
  N      -45.112      10.953      87.543
  C      -44.205      10.892      88.544
  N      -43.682      11.907      89.265
  C      -44.200      13.081      88.867
  C      -45.124      13.300      87.860
  C      -45.592      12.165      87.180
  N      -46.488      12.230      86.137
  N      -45.374      14.651      87.716
  C      -44.622      15.237      88.627
  N      -43.900      14.327      89.347
  O      -43.986      20.672      91.597
  O      -45.973      19.944      90.144
  H      -40.424      13.802      90.118
  H      -44.346      21.551      91.372
  H      -43.847       9.896      88.795
  H      -44.560      16.305      88.795
  H      -42.677      13.606      90.841
  H      -41.549      15.202      88.752
  H      -42.565      17.208      89.550
  H      -41.866      16.260      92.388
  H      -44.031      17.445      92.915
  H      -42.716      18.540      92.408
  H      -46.761      11.375      85.679
  H      -46.770      13.137      85.788
  P      -40.449      18.716      89.430
  C      -38.532      17.797      87.932
  O      -39.903      18.154      88.030
  O      -39.175      19.440      90.072
  O      -41.615      19.640      89.309
  H      -39.452      20.208      90.606
  H      -38.325      17.443      86.944
  H      -38.313      17.026      88.640
  H      -37.925      18.654      88.138

 6  7  8  9  10  11  12  13  14  15  25  28  32  33  34  35 0
 6-311+G(2d,p)
 ****
 36  37  40 0
 6-311+G(2d,p)
 ****
 1  2  3  4  5  16  17  18  19  20  21  22  23  24 0
 3-21G
 ****
 26  27  29  30  31  38  39 41  42  43  44  45  46  47  48 0
 3-21G
 ****


