%nproc=1
%NoSave
%Mem=1900MB
#P OB98/GEN NMR

erre ene a

0 1
  C      195.955     -16.565     -17.395
  O      194.684     -16.184     -17.887
  P      194.347     -16.285     -19.446
  C      194.543     -13.732     -19.536
  O      194.917     -14.958     -20.151
  C      195.152     -12.535     -20.265
  O      196.591     -12.535     -20.055
  C      194.912     -12.518     -21.780
  O      194.789     -11.144     -22.164
  C      196.209     -13.087     -22.333
  O      196.427     -12.747     -23.696
  C      197.209     -12.475     -21.358
  N      201.345     -13.755     -24.076
  C      200.229     -13.073     -24.406
  N      199.159     -12.796     -23.633
  C      199.323     -13.299     -22.399
  C      200.392     -14.041     -21.925
  C      201.455     -14.253     -22.820
  N      202.615     -14.916     -22.489
  N      200.165     -14.432     -20.617
  C      198.984     -13.933     -20.314
  N      198.467     -13.187     -21.337
  O      192.926     -16.600     -19.773
  O      195.331     -17.428     -19.983
  H      195.690     -13.106     -24.224
  H      194.823     -18.247     -20.156
  H      200.190     -12.695     -25.423
  H      198.461     -14.079     -19.378
  H      197.419     -11.423     -21.586
  H      196.193     -14.181     -22.255
  H      194.034     -13.088     -22.099
  H      194.759     -11.620     -19.805
  H      194.905     -13.748     -18.503
  H      203.363     -14.895     -23.165
  H      202.834     -15.061     -21.506
  H      193.450     -13.646     -19.517
  P      193.845     -10.737     -23.392
  C      195.889     -10.172     -24.824
  O      194.710     -10.949     -24.723
  O      193.171      -9.411     -23.269
  O      192.782     -11.938     -23.457
  H      192.005     -11.655     -23.981
  H      195.630      -9.164     -25.160
  H      196.557     -10.633     -25.559
  H      196.406     -10.112     -23.864
  H      195.984     -16.425     -16.335
  H      196.711     -15.963     -17.855
  H      196.132     -17.595     -17.624

 3  4  5  6  7  8  9  10  11  12  22  25  29  30  31  32 0
 6-311+G(2d,p)
 ****
 33  36  37 0
 6-311+G(2d,p)
 ****
 1  2  13  14  15  16  17  18  19  20  21  23  24  26 0
 3-21G
 ****
 27  28  34  35  38  39  40  41  42  43  44  45  46  47  48 0
 3-21G
 ****


