%nproc=1
%NoSave
%Mem=1900MB
#P OB98/GEN NMR

erre ene a

0 1
  C       57.428      21.662     316.214
  O       56.033      21.872     316.198
  H       57.757      21.561     317.252
  H       57.941      22.517     315.766
  H       57.682      20.749     315.672
  P       55.330      22.023     314.761
  C       53.184      20.553     314.860
  O       53.757      21.840     315.049
  C       53.210      19.760     316.170
  O       52.713      20.596     317.243
  C       52.349      18.495     316.130
  O       53.059      17.421     316.749
  C       51.114      18.858     316.931
  O       50.488      17.715     317.509
  C       51.670      19.881     317.929
  N       50.632      20.787     318.415
  C       50.378      20.779     319.789
  O       51.009      20.021     320.530
  N       49.385      21.585     320.284
  C       48.664      22.291     319.471
  N       47.681      23.051     320.023
  C       48.865      22.294     318.010
  C       49.857      21.532     317.555
  O       55.737      20.668     314.019
  O       55.684      23.261     314.007
  H       49.752      18.028     318.079
  H       55.551      20.717     313.050
  H       48.226      22.889     317.371
  H       50.075      21.471     316.493
  H       52.122      19.371     318.793
  H       50.382      19.341     316.271
  H       52.081      18.197     315.116
  H       54.251      19.524     316.414
  H       47.567      23.015     321.028
  H       53.755      20.018     314.096
  H       47.040      23.616     319.483
  H       52.149      20.667     314.521
  P       53.753      16.368     315.756
  C       55.891      16.035     317.181
  O       54.725      15.441     316.636
  O       54.754      17.270     314.895
  O       52.779      15.623     314.903
  H       54.362      17.483     314.027
  H       56.437      15.303     317.739
  H       55.612      16.841     317.828
  H       56.504      16.410     316.388

 6  7  8  9  10  11  12  13  14  15  16  26  30  31  32  33  35 0
 6-311+G(2d,p)
 ****
 37  38 0
 6-311+G(2d,p)
 ****
 1  2  3  4  5  17  18  19  20  21  22  23  24  25 0
 3-21G
 ****
 27  28  29  34  36  39  40  41  42  43  44  45  46 0
 3-21G
 ****


