%nproc=1
%NoSave
%Mem=1900MB
#P OB98/GEN NMR

erre ene a

0 1
  C     -930.139     508.654    1252.586
  O     -930.294     509.815    1253.376
  H     -930.996     508.001    1252.746
  H     -929.228     508.125    1252.863
  H     -930.102     508.937    1251.518
  P     -929.098     510.875    1253.365
  C     -929.823     513.067    1252.159
  O     -929.757     512.341    1253.389
  C     -931.270     513.492    1251.904
  O     -932.014     512.370    1251.326
  C     -932.049     513.887    1253.142
  O     -931.744     515.192    1253.594
  C     -933.477     513.748    1252.663
  O     -933.915     514.941    1251.993
  C     -933.391     512.551    1251.706
  N     -933.963     511.338    1252.290
  C     -935.153     511.511    1252.981
  O     -935.723     512.587    1253.109
  N     -935.653     510.365    1253.563
  C     -935.077     509.132    1253.563
  O     -935.555     508.176    1254.178
  C     -933.804     509.025    1252.841
  C     -933.311     510.114    1252.238
  O     -928.511     510.747    1251.872
  O     -928.041     510.649    1254.400
  H     -927.657     510.271    1251.902
  H     -933.859     515.657    1252.646
  H     -936.529     510.465    1254.070
  H     -933.316     508.063    1252.823
  H     -932.365     510.068    1251.707
  H     -933.951     512.765    1250.777
  H     -934.151     513.585    1253.499
  H     -931.867     513.151    1253.948
  H     -931.270     514.305    1251.170
  H     -929.488     512.419    1251.338
  H     -929.160     513.944    1252.228
  P     -931.724     515.468    1255.166
  C     -929.129     515.988    1255.172
  O     -930.459     516.421    1255.456
  O     -931.276     514.033    1255.729
  O     -933.030     515.971    1255.692
  H     -930.750     513.537    1255.074
  H     -928.438     516.762    1255.434
  H     -929.040     515.770    1254.128
  H     -928.911     515.108    1255.740

 6  7  8  9  10  11  12  13  14  15  16  27  31  32  33  34  35 0
 6-311+G(2d,p)
 ****
 36  37 0
 6-311+G(2d,p)
 ****
 1  2  3  4  5  17  18  19  20  21  22  23  24  25 0
 3-21G
 ****
 26  28  29  30  38  39  40  41  42  43  44  45 0
 3-21G
 ****


