%nproc=1
%NoSave
%Mem=1900MB
#P OB98/GEN NMR

erre ene a

0 1
  C     -292.302    1518.349     -66.659
  O     -291.725    1517.259     -65.981
  H     -292.001    1518.301     -67.708
  H     -291.947    1519.275     -66.235
  H     -293.396    1518.297     -66.606
  P     -292.116    1516.991     -64.444
  C     -293.962    1515.202     -64.761
  O     -293.667    1516.552     -64.410
  C     -295.465    1514.925     -64.600
  O     -295.823    1515.001     -63.202
  C     -296.350    1515.932     -65.377
  O     -297.468    1515.237     -65.915
  C     -296.810    1516.889     -64.291
  O     -298.044    1517.501     -64.608
  C     -296.871    1515.976     -63.072
  N     -299.059    1519.428     -60.076
  C     -299.524    1518.806     -61.229
  N     -300.741    1519.198     -61.659
  N     -298.853    1517.921     -61.905
  C     -297.647    1517.626     -61.342
  C     -297.084    1518.157     -60.222
  C     -297.818    1519.160     -59.499
  O     -297.444    1519.737     -58.476
  N     -295.835    1517.583     -59.979
  C     -295.665    1516.751     -60.985
  N     -296.727    1516.729     -61.826
  O     -291.767    1518.095     -63.504
  O     -291.361    1515.644     -64.060
  H     -298.331    1518.018     -63.821
  H     -290.583    1515.823     -63.494
  H     -299.599    1520.103     -59.606
  H     -294.795    1516.122     -61.128
  H     -297.822    1515.441     -62.999
  H     -296.060    1517.674     -64.130
  H     -301.327    1519.859     -61.165
  H     -295.803    1516.431     -66.174
  H     -301.137    1518.746     -62.484
  H     -295.674    1513.899     -64.951
  H     -293.390    1514.563     -64.073
  H     -293.633    1515.005     -65.774
  P     -297.587    1515.064     -67.520
  C     -297.080    1512.567     -67.198
  O     -296.806    1513.739     -67.949
  O     -297.266    1516.305     -68.299
  O     -299.135    1514.649     -67.714
  H     -299.453    1515.038     -68.545
  H     -296.499    1511.754     -67.581
  H     -298.120    1512.329     -67.275
  H     -296.827    1512.734     -66.172

 6  7  8  9  10  11  12  13  14  15  26  29  33  34 0
 6-311+G(2d,p)
 ****
 36  38  39  40  41 0
 6-311+G(2d,p)
 ****
 1  2  3  4  5  16  17  18  19  20  21  22  23  24  25 0
 3-21G
 ****
 27  28  30  31  32  35  37  42  43  44  45  46  47 0
 3-21G
 ****
 48  49 0
 3-21G
 ****


