%nproc=1
%NoSave
%Mem=1900MB
#P OB98/GEN NMR

erre ene a

0 1
  C      -95.935    -894.670    -360.472
  O      -94.973    -893.930    -361.252
  P      -93.476    -893.770    -360.714
  C      -93.096    -895.930    -362.141
  O      -92.666    -895.110    -361.063
  C      -91.899    -896.510    -362.899
  O      -91.261    -895.480    -363.686
  C      -90.798    -897.050    -361.986
  O      -91.138    -898.320    -361.464
  C      -89.613    -897.090    -362.945
  O      -89.645    -898.280    -363.767
  C      -89.860    -895.830    -363.811
  N      -88.970    -894.730    -363.451
  C      -88.018    -894.360    -364.393
  O      -87.884    -894.950    -365.469
  N      -87.230    -893.290    -364.051
  C      -87.235    -892.640    -362.865
  O      -86.484    -891.700    -362.610
  C      -88.205    -893.130    -361.862
  C      -89.007    -894.130    -362.190
  O      -93.677    -893.920    -359.128
  O      -92.788    -892.480    -361.053
  H      -89.706    -899.040    -363.168
  H      -92.955    -893.430    -358.669
  H      -86.551    -893.000    -364.749
  H      -88.227    -892.650    -360.892
  H      -89.723    -894.520    -361.471
  H      -89.705    -896.060    -364.878
  H      -88.658    -897.090    -362.414
  H      -90.593    -896.350    -361.181
  H      -92.262    -897.270    -363.587
  H      -93.714    -895.340    -362.837
  H      -93.732    -896.740    -361.754
  P      -91.862    -898.350    -360.037
  C      -94.192    -898.970    -361.052
  O      -93.411    -898.060    -360.321
  O      -91.285    -897.010    -359.374
  O      -91.558    -899.610    -359.266
  H      -91.137    -896.310    -360.047
  H      -93.897    -900.000    -360.870
  H      -94.105    -898.750    -362.126
  H      -95.232    -898.840    -360.752
  H      -96.877    -894.675    -360.979
  H      -96.048    -894.208    -359.514
  H      -95.593    -895.676    -360.345

 3  4  5  6  7  8  9  10  11  12  13  23  28  29  30  31  32 0
 6-311+G(2d,p)
 ****
 33  34 0
 6-311+G(2d,p)
 ****
 1  2  14  15  16  17  18  19  20  21  22  24  25  26 0
 3-21G
 ****
 27  35  36  37  38  39  40  41  42  43  44  45 0
 3-21G
 ****


