%nproc=1
%NoSave
%Mem=1900MB
#P OB98/GEN NMR

erre ene a

0 1
  C     -511.205    -518.524    -325.250
  O     -510.317    -519.618    -325.019
  P     -509.914    -520.559    -326.247
  C     -507.517    -520.877    -325.343
  O     -508.705    -521.519    -325.783
  C     -507.665    -520.381    -323.900
  O     -507.993    -521.489    -323.016
  C     -506.374    -519.738    -323.366
  O     -506.689    -518.681    -322.447
  C     -505.744    -520.869    -322.572
  O     -504.807    -520.377    -321.619
  C     -506.986    -521.532    -321.983
  N     -505.494    -524.540    -318.114
  C     -505.705    -523.213    -318.190
  N     -506.124    -522.481    -319.243
  C     -506.349    -523.270    -320.305
  C     -506.187    -524.648    -320.381
  C     -505.732    -525.295    -319.220
  N     -505.490    -526.647    -319.158
  N     -506.511    -525.112    -321.640
  C     -506.809    -524.028    -322.327
  N     -506.759    -522.895    -321.556
  O     -509.701    -519.871    -327.552
  O     -511.146    -521.583    -326.328
  H     -505.295    -519.804    -320.993
  H     -511.379    -521.730    -327.275
  H     -505.504    -522.658    -317.276
  H     -507.053    -524.005    -323.381
  H     -507.372    -520.978    -321.116
  H     -505.217    -521.548    -323.255
  H     -505.707    -519.348    -324.134
  H     -508.498    -519.674    -323.853
  H     -507.289    -520.037    -326.006
  H     -505.059    -527.004    -318.319
  H     -505.519    -527.189    -320.010
  H     -506.677    -521.570    -325.444
  P     -506.077    -517.236    -322.809
  C     -507.848    -515.831    -321.493
  O     -506.515    -516.265    -321.608
  O     -506.410    -516.771    -324.182
  O     -504.507    -517.468    -322.570
  H     -504.279    -517.877    -321.721
  H     -507.969    -515.296    -320.549
  H     -508.538    -516.677    -321.497
  H     -508.099    -515.154    -322.312
  H     -511.371    -517.999    -324.332
  H     -512.137    -518.894    -325.623
  H     -510.772    -517.859    -325.968

 3  4  5  6  7  8  9  10  11  12  22  25  29  30  31  32 0
 6-311+G(2d,p)
 ****
 33  36  37 0
 6-311+G(2d,p)
 ****
 1  2  13  14  15  16  17  18  19  20  21  23  24  26 0
 3-21G
 ****
 27  28  34  35  38  39  40  41  42  43  44  45  46  47  48 0
 3-21G
 ****


