%nproc=1
%NoSave
%Mem=1900MB
#P OB98/GEN NMR

erre ene a

0 1
  C      -42.295    -391.420     409.934
  O      -41.179    -390.600     409.638
  P      -39.968    -391.178     408.767
  C      -37.422    -391.534     409.175
  O      -38.631    -390.968     409.627
  C      -36.361    -391.536     410.287
  O      -36.023    -390.160     410.579
  C      -36.818    -392.148     411.606
  O      -35.664    -392.465     412.383
  C      -37.554    -390.991     412.246
  O      -37.688    -391.146     413.655
  C      -36.719    -389.768     411.787
  N      -37.569    -388.594     411.532
  C      -38.118    -387.955     412.641
  O      -37.853    -388.285     413.796
  N      -39.039    -386.982     412.378
  C      -39.487    -386.634     411.135
  O      -40.517    -385.998     410.930
  C      -38.708    -387.171     410.008
  C      -37.813    -388.132     410.248
  O      -39.836    -390.107     407.589
  O      -40.172    -392.558     408.247
  H      -38.177    -391.986     413.804
  H      -40.315    -390.417     406.796
  H      -39.540    -386.622     413.179
  H      -38.931    -386.802     409.011
  H      -37.260    -388.580     409.431
  H      -35.974    -389.487     412.547
  H      -38.566    -390.931     411.824
  H      -37.458    -393.028     411.496
  H      -35.456    -392.035     409.919
  H      -37.066    -390.979     408.302
  H      -37.587    -392.562     408.839
  P      -35.494    -393.977     412.891
  C      -35.608    -394.844     415.308
  O      -36.232    -394.059     414.312
  O      -34.108    -394.529     412.857
  O      -36.481    -394.796     411.933
  H      -36.249    -395.741     411.945
  H      -35.861    -394.437     416.289
  H      -34.515    -394.842     415.194
  H      -35.974    -395.870     415.242
  H      -42.998    -390.867     410.521
  H      -41.971    -392.280     410.482
  H      -42.760    -391.733     409.022

 3  4  5  6  7  8  9  10  11  12  13  23  28  29  30  31  32 0
 6-311+G(2d,p)
 ****
 33  34 0
 6-311+G(2d,p)
 ****
 1  2  14  15  16  17  18  19  20  21  22  24  25  26  27 0
 3-21G
 ****
 35  36  37  38  39  40  41  42  43  44  45 0
 3-21G
 ****


