%nproc=1
%NoSave
%Mem=1900MB
#P OB98/GEN NMR

erre ene a

0 1
  C       -3.101      30.756       5.970
  O       -3.359      31.704       6.985
  P       -3.489      33.263       6.632
  C       -0.946      33.646       6.829
  O       -2.082      33.667       5.969
  C        0.349      33.714       6.020
  O        0.511      32.523       5.224
  C        0.412      34.879       5.043
  O        0.699      36.086       5.724
  C        1.507      34.409       4.095
  O        2.811      34.687       4.627
  C        1.254      32.886       4.040
  N        0.564      32.481       2.823
  C        1.257      32.700       1.626
  O        2.365      33.236       1.637
  N        0.653      32.350       0.442
  C       -0.544      31.851       0.454
  N       -1.092      31.536      -0.750
  C       -1.320      31.634       1.692
  C       -0.712      31.970       2.827
  O       -3.944      34.135       7.752
  O       -4.487      33.267       5.378
  H        3.447      34.229       4.042
  H       -5.418      33.089       5.658
  H       -2.318      31.226       1.650
  H       -1.209      31.847       3.781
  H        2.203      32.337       4.093
  H        1.446      34.902       3.120
  H       -0.536      34.957       4.498
  H        1.188      33.767       6.727
  H       -0.540      31.728      -1.576
  H       -0.966      32.715       7.402
  H       -2.028      31.177      -0.858
  H       -1.009      34.484       7.531
  P       -0.112      37.418       5.363
  C        1.472      38.479       3.647
  O        0.242      37.812       3.851
  O        0.004      38.527       6.355
  O       -1.628      36.912       5.257
  H       -2.208      37.549       5.716
  H        1.748      38.392       2.593
  H        2.264      38.040       4.259
  H        1.360      39.536       3.899
  H       -3.050      29.778       6.400
  H       -2.170      30.986       5.495
  H       -3.888      30.786       5.245

 3  4  5  6  7  8  9  10  11  12  13  23  27  28  29  30  32 0
 6-311+G(2d,p)
 ****
 34  35 0
 6-311+G(2d,p)
 ****
 1  2  14  15  16  17  18  19  20  21  22  24  25  26 0
 3-21G
 ****
 31  33  36  37  38  39  40  41  42  43  44  45  46 0
 3-21G
 ****


