%nproc=1
%NoSave
%Mem=1900MB
#P OB98/GEN NMR

erre ene a

0 1
  C     -652.779      48.861    -455.195
  O     -652.931      50.124    -455.817
  H     -651.900      48.341    -455.598
  H     -652.629      49.017    -454.121
  H     -653.679      48.255    -455.349
  P     -653.059      50.121    -457.412
  C     -654.986      51.844    -457.648
  O     -654.588      50.474    -457.753
  C     -656.514      51.946    -457.644
  O     -657.049      51.317    -456.453
  C     -657.049      53.363    -457.646
  O     -657.014      53.956    -458.931
  C     -658.495      53.113    -457.183
  O     -659.283      52.678    -458.300
  C     -658.314      51.968    -456.170
  N     -660.475      51.382    -451.538
  C     -660.722      50.783    -452.736
  N     -660.106      50.997    -453.916
  C     -659.144      51.930    -453.807
  C     -658.806      52.642    -452.664
  C     -659.510      52.341    -451.500
  N     -659.270      52.970    -450.290
  N     -657.768      53.507    -452.924
  C     -657.497      53.342    -454.211
  N     -658.323      52.403    -454.794
  O     -652.951      48.568    -457.792
  O     -652.033      50.927    -458.134
  H     -660.145      52.396    -457.931
  H     -652.465      48.479    -458.644
  H     -661.484      50.013    -452.734
  H     -656.719      53.872    -454.746
  H     -659.101      51.202    -456.296
  H     -658.966      54.002    -456.772
  H     -656.541      53.985    -456.907
  H     -656.891      51.374    -458.518
  H     -654.595      52.396    -458.505
  H     -659.673      52.566    -449.451
  H     -658.536      53.669    -450.255
  H     -654.569      52.255    -456.729
  P     -656.233      55.345    -459.090
  C     -654.613      54.695    -461.024
  O     -654.760      54.962    -459.632
  O     -655.951      55.791    -457.571
  O     -656.956      56.399    -459.845
  H     -655.847      56.745    -457.499
  H     -653.591      54.457    -461.236
  H     -654.902      55.559    -461.585
  H     -655.235      53.868    -461.296

 6  7  8  9  10  11  12  13  14  15  25  28  32  33  34  35 0
 6-311+G(2d,p)
 ****
 36  39  40 0
 6-311+G(2d,p)
 ****
 1  2  3  4  5  16  17  18  19  20  21  22  23  24 0
 3-21G
 ****
 26  27  29  30  31  37  38  41  42  43  44  45  46  47  48 0
 3-21G
 ****


