%nproc=1
%NoSave
%Mem=1900MB
#P OB98/GEN NMR

erre ene a

0 1
  C      -30.380     150.397     519.598
  O      -30.920     149.115     519.343
  H      -29.729     150.678     518.766
  H      -29.783     150.392     520.518
  H      -31.181     151.136     519.688
  P      -31.786     148.412     520.493
  C      -32.280     146.677     518.635
  O      -31.993     146.897     520.013
  C      -31.920     145.248     518.247
  O      -30.507     145.136     517.984
  C      -32.218     144.234     519.348
  O      -33.603     143.964     519.423
  C      -31.339     143.074     518.909
  O      -31.967     142.318     517.865
  C      -30.084     143.813     518.383
  N      -29.016     143.879     519.369
  C      -28.582     142.650     519.888
  O      -29.095     141.598     519.508
  N      -27.596     142.656     520.841
  C      -27.074     143.774     521.233
  N      -26.101     143.707     522.184
  C      -27.486     145.090     520.705
  C      -28.460     145.065     519.794
  O      -33.049     149.104     520.911
  O      -30.750     148.271     521.708
  H      -32.238     142.971     517.186
  H      -30.779     149.065     522.278
  H      -27.020     145.994     521.057
  H      -28.819     145.985     519.344
  H      -29.697     143.317     517.487
  H      -31.135     142.393     519.734
  H      -31.839     144.603     520.310
  H      -32.456     144.994     517.322
  H      -25.853     142.783     522.528
  H      -31.676     147.386     518.060
  H      -25.560     144.506     522.497
  H      -33.337     146.871     518.424
  P      -34.272     143.519     520.812
  C      -36.670     143.381     519.869
  O      -35.566     142.653     520.406
  O      -34.522     144.630     521.778
  O      -33.258     142.409     521.367
  H      -32.428     142.820     521.708
  H      -37.466     142.704     519.638
  H      -36.363     143.888     518.978
  H      -37.009     144.097     520.588

 6  7  8  9  10  11  12  13  14  15  16  26  30  31  32  33  35 0
 6-311+G(2d,p)
 ****
 37  38 0
 6-311+G(2d,p)
 ****
 1  2  3  4  5  17  18  19  20  21  22  23  24  25 0
 3-21G
 ****
 27  28  29  34  36  39  40  41  42  43  44  45  46 0
 3-21G
 ****


