%nproc=1
%NoSave
%Mem=1900MB
#P OB98/GEN NMR

erre ene a

0 1
  C      -95.517      88.046     -40.548
  O      -96.015      86.844     -41.102
  H      -96.226      88.849     -40.749
  H      -94.559      88.295     -41.015
  H      -95.392      87.951     -39.463
  P      -95.304      85.480     -40.641
  C      -97.499      84.166     -41.100
  O      -96.105      84.286     -41.357
  C      -98.206      83.554     -42.306
  O      -98.276      84.500     -43.389
  C      -97.531      82.304     -42.863
  O      -97.902      81.134     -42.141
  C      -98.102      82.277     -44.271
  O      -99.457      81.775     -44.234
  C      -98.110      83.772     -44.638
  N      -95.399      83.655     -48.925
  C      -96.564      82.991     -48.598
  N      -97.079      82.172     -49.545
  N      -97.174      83.112     -47.444
  C      -96.534      83.944     -46.585
  C      -95.364      84.652     -46.795
  C      -94.717      84.519     -48.079
  O      -93.684      85.094     -48.422
  N      -95.023      85.391     -45.694
  C      -95.965      85.114     -44.813
  N      -96.904      84.235     -45.307
  O      -95.734      85.359     -39.103
  O      -93.818      85.454     -40.794
  H      -99.753      81.682     -45.157
  H      -94.982      85.632     -38.544
  H      -94.962      83.517     -49.823
  H      -96.019      85.522     -43.814
  H      -98.958      84.037     -45.288
  H      -97.542      81.630     -44.945
  H      -96.649      82.017     -50.447
  H      -96.437      82.420     -42.912
  H      -97.936      81.679     -49.328
  H      -99.240      83.330     -42.006
  H      -97.910      85.160     -40.904
  H      -97.642      83.537     -40.217
  P      -96.736      80.240     -41.497
  C      -98.272      79.308     -39.629
  O      -97.450      79.010     -40.745
  O      -96.209      81.157     -40.295
  O      -95.628      79.872     -42.427
  H      -95.304      81.477     -40.488
  H      -98.678      78.401     -39.232
  H      -99.070      79.951     -39.936
  H      -97.689      79.797     -38.877

 6  7  8  9  10  11  12  13  14  15  26  29  33  34 0
 6-311+G(2d,p)
 ****
 36  38  39  40  41 0
 6-311+G(2d,p)
 ****
 1  2  3  4  5  16  17  18  19  20  21  22  23  24  25 0
 3-21G
 ****
 27  28  30  31  32  35  37  42  43  44  45  46  47 0
 3-21G
 ****
 48  49 0
 3-21G
 ****


