%nproc=1
%NoSave
%Mem=1900MB
#P OB98/GEN NMR

erre ene a

0 1
  C     -268.260      38.503    -206.146
  O     -267.615      39.502    -205.381
  H     -267.539      38.094    -206.866
  H     -269.098      38.929    -206.699
  H     -268.614      37.689    -205.505
  P     -268.409      40.172    -204.158
  C     -266.526      39.513    -202.525
  O     -267.913      39.436    -202.824
  C     -266.224      40.825    -201.799
  O     -266.926      40.874    -200.536
  C     -264.749      41.017    -201.461
  O     -264.008      41.377    -202.613
  C     -264.843      42.095    -200.387
  O     -265.033      43.391    -200.973
  C     -266.117      41.655    -199.621
  N     -265.810      40.885    -198.405
  C     -265.725      41.624    -197.229
  O     -265.887      42.845    -197.176
  N     -265.400      40.912    -196.103
  C     -265.071      39.582    -196.065
  O     -264.570      39.035    -195.085
  C     -265.250      38.844    -197.328
  C     -265.589      39.527    -198.429
  O     -269.891      40.264    -204.318
  O     -267.744      41.625    -204.028
  H     -268.328      42.286    -204.448
  H     -265.334      43.979    -200.252
  H     -265.288      41.440    -195.250
  H     -265.061      37.777    -197.326
  H     -265.703      39.005    -199.378
  H     -266.712      42.528    -199.334
  H     -263.943      42.150    -199.773
  H     -264.344      40.101    -201.011
  H     -266.587      41.655    -202.421
  H     -265.967      39.482    -203.470
  H     -266.238      38.653    -201.907
  P     -262.443      41.068    -202.726
  C     -262.830      38.636    -203.452
  O     -262.231      39.495    -202.487
  O     -261.563      41.947    -201.901
  O     -262.118      41.243    -204.289
  H     -261.369      41.864    -204.392
  H     -262.627      37.617    -203.197
  H     -262.425      38.849    -204.419
  H     -263.888      38.797    -203.465

 6  7  8  9  10  11  12  13  14  15  16  27  31  32  33  34  35 0
 6-311+G(2d,p)
 ****
 36  37 0
 6-311+G(2d,p)
 ****
 1  2  3  4  5  17  18  19  20  21  22  23  24  25 0
 3-21G
 ****
 26  28  29  30  38  39  40  41  42  43  44  45 0
 3-21G
 ****


