%nproc=1
%NoSave
%Mem=1900MB
#P OB98/GEN NMR

erre ene a

0 1
  C      130.124     178.756      90.480
  O      131.434     178.265      90.303
  H      129.450     177.903      90.607
  H      129.801     179.324      89.604
  H      130.069     179.383      91.374
  P      132.604     179.292      89.902
  C      131.351     179.718      87.705
  O      131.915     180.318      88.864
  C      131.554     180.594      86.467
  O      130.847     181.851      86.638
  C      133.022     180.925      86.177
  O      133.290     180.724      84.786
  C      133.135     182.403      86.526
  O      134.210     183.039      85.841
  C      131.725     182.896      86.177
  N      131.404     184.182      86.788
  C      131.820     185.323      86.095
  O      132.457     185.214      85.046
  N      131.542     186.558      86.623
  C      130.946     186.646      87.772
  N      130.708     187.900      88.247
  C      130.531     185.469      88.561
  C      130.780     184.280      88.010
  O      133.858     178.651      89.411
  O      132.814     180.193      91.210
  H      134.203     183.995      86.074
  H      133.703     180.626      91.171
  H      130.047     185.594      89.518
  H      130.503     183.360      88.514
  H      131.603     182.991      85.090
  H      133.310     182.510      87.604
  H      133.722     180.325      86.752
  H      131.081     180.094      85.610
  H      131.007     188.682      87.675
  H      130.284     179.548      87.882
  H      130.258     188.091      89.131
  H      131.848     178.754      87.542
  P      134.135     179.410      84.412
  C      136.473     180.529      84.419
  O      135.607     179.579      85.028
  O      134.358     179.556      82.835
  O      133.442     178.132      84.759
  H      133.726     178.992      82.352
  H      137.413     180.534      84.930
  H      136.031     181.502      84.476
  H      136.626     180.266      83.393

 6  7  8  9  10  11  12  13  14  15  16  26  30  31  32  33  35 0
 6-311+G(2d,p)
 ****
 37  38 0
 6-311+G(2d,p)
 ****
 1  2  3  4  5  17  18  19  20  21  22  23  24  25 0
 3-21G
 ****
 27  28  29  34  36  39  40  41  42  43  44  45  46 0
 3-21G
 ****


