%nproc=1
%NoSave
%Mem=1900MB
#P OB98/GEN NMR

erre ene a

0 1
  C       65.151     -71.151      78.398
  O       66.229     -72.060      78.308
  H       64.641     -71.114      77.431
  H       65.523     -70.150      78.633
  H       64.433     -71.470      79.159
  P       67.034     -72.440      79.640
  C       68.683     -74.305      80.335
  O       67.999     -73.664      79.267
  C       69.030     -75.755      79.963
  O       67.788     -76.463      79.649
  C       69.957     -75.891      78.734
  O       70.732     -77.088      78.925
  C       68.936     -76.063      77.623
  O       69.517     -76.477      76.416
  C       67.964     -77.021      78.320
  N       66.670     -77.190      77.667
  C       66.590     -78.127      76.640
  O       67.521     -78.828      76.247
  N       65.356     -78.246      76.043
  C       64.229     -77.549      76.379
  O       63.145     -77.723      75.827
  C       64.385     -76.573      77.464
  C       65.577     -76.443      78.049
  O       66.205     -72.642      80.866
  O       68.063     -71.222      79.820
  H       67.731     -70.613      80.508
  H       68.829     -76.494      75.715
  H       65.274     -78.922      75.302
  H       63.512     -75.991      77.749
  H       65.717     -75.734      78.863
  H       68.434     -78.001      78.448
  H       68.452     -75.102      77.412
  H       70.631     -75.037      78.607
  H       69.466     -76.250      80.845
  H       68.026     -74.298      81.213
  H       69.593     -73.750      80.563
  P       72.223     -77.090      79.514
  C       73.808     -78.872      80.525
  O       72.696     -78.617      79.671
  O       72.389     -76.282      80.764
  O       73.148     -76.524      78.335
  H       73.943     -76.110      78.715
  H       74.014     -79.922      80.538
  H       73.579     -78.541      81.517
  H       74.665     -78.344      80.162

 6  7  8  9  10  11  12  13  14  15  16  27  31  32  33  34  35 0
 6-311+G(2d,p)
 ****
 36  37 0
 6-311+G(2d,p)
 ****
 1  2  3  4  5  17  18  19  20  21  22  23  24  25 0
 3-21G
 ****
 26  28  29  30  38  39  40  41  42  43  44  45 0
 3-21G
 ****


