%nproc=1
%NoSave
%Mem=1900MB
#P OB98/GEN NMR

erre ene a

0 1
  C     -109.490      82.938    -133.537
  O     -109.349      81.584    -133.969
  P     -110.368      80.476    -133.420
  C     -110.460      79.171    -135.643
  O     -110.165      79.122    -134.256
  C     -109.683      78.092    -136.413
  O     -108.313      78.529    -136.619
  C     -109.645      76.744    -135.680
  O     -110.042      75.648    -136.502
  C     -108.232      76.681    -135.127
  O     -107.793      75.354    -134.875
  C     -107.430      77.492    -136.152
  N     -106.194      78.032    -135.579
  C     -105.122      77.155    -135.470
  O     -105.195      75.962    -135.760
  N     -103.964      77.680    -134.959
  C     -103.807      78.946    -134.480
  O     -102.763      79.356    -133.987
  C     -104.995      79.810    -134.561
  C     -106.113      79.320    -135.097
  O     -111.786      80.916    -133.267
  O     -109.740      80.092    -131.990
  H     -106.906      75.396    -134.455
  H     -110.479      79.954    -131.366
  H     -103.173      77.060    -134.891
  H     -104.915      80.815    -134.170
  H     -107.007      79.930    -135.157
  H     -107.146      76.869    -137.007
  H     -108.214      77.213    -134.167
  H     -110.359      76.721    -134.849
  H     -110.162      77.982    -137.390
  H     -110.187      80.152    -136.037
  H     -111.541      79.074    -135.787
  P     -111.055      74.495    -136.051
  C     -112.501      74.369    -138.198
  O     -111.560      73.728    -137.362
  O     -112.136      74.910    -135.112
  O     -110.093      73.425    -135.345
  H     -110.535      73.068    -134.554
  H     -113.005      73.612    -138.804
  H     -111.979      75.064    -138.866
  H     -113.249      74.912    -137.616
  H     -108.734      83.540    -133.997
  H     -109.386      82.986    -132.473
  H     -110.456      83.303    -133.818

 3  4  5  6  7  8  9  10  11  12  13  23  28  29  30  31  32 0
 6-311+G(2d,p)
 ****
 33  34 0
 6-311+G(2d,p)
 ****
 1  2  14  15  16  17  18  19  20  21  22  24  25  26  27 0
 3-21G
 ****
 35  36  37  38  39  40  41  42  43  44  45 0
 3-21G
 ****


