%nproc=1
%NoSave
%Mem=1900MB
#P OB98/GEN NMR

erre ene a

0 1
  C      -56.243     -21.325     301.938
  O      -56.517     -22.434     302.774
  P      -55.763     -23.818     302.479
  C      -53.309     -23.321     303.272
  O      -54.226     -23.451     302.202
  C      -52.057     -24.162     303.003
  O      -52.452     -25.552     302.838
  C      -51.275     -23.754     301.749
  O      -49.885     -23.963     302.030
  C      -51.762     -24.749     300.710
  O      -50.857     -24.901     299.629
  C      -51.930     -26.004     301.573
  N      -52.816     -27.006     300.980
  C      -52.303     -27.812     299.972
  O      -51.158     -27.719     299.533
  N      -53.174     -28.733     299.445
  C      -54.490     -28.876     299.774
  O      -55.228     -29.706     299.258
  C      -54.989     -27.964     300.812
  C      -54.140     -27.095     301.364
  O      -56.344     -24.186     301.036
  O      -55.981     -24.853     303.529
  H      -56.492     -23.404     300.476
  H      -51.364     -25.179     298.845
  H      -52.813     -29.354     298.739
  H      -56.032     -28.037     301.093
  H      -54.486     -26.411     302.132
  H      -50.950     -26.455     301.774
  H      -52.722     -24.412     300.306
  H      -51.445     -22.713     301.468
  H      -51.414     -24.112     303.890
  H      -53.777     -23.664     304.197
  H      -53.049     -22.264     303.398
  P      -48.807     -23.100     301.202
  C      -48.950     -20.822     302.483
  O      -49.234     -21.562     301.316
  O      -49.233     -23.479     299.701
  O      -47.379     -23.425     301.495
  H      -50.190     -23.399     299.550
  H      -49.005     -19.758     302.245
  H      -47.949     -21.043     302.862
  H      -49.693     -21.051     303.253
  H      -56.819     -20.484     302.261
  H      -56.501     -21.567     300.928
  H      -55.201     -21.086     301.992

 3  4  5  6  7  8  9  10  11  12  13  24  28  29  30  31  32 0
 6-311+G(2d,p)
 ****
 33  34 0
 6-311+G(2d,p)
 ****
 1  2  14  15  16  17  18  19  20  21  22  23  25  26  27 0
 3-21G
 ****
 35  36  37  38  39  40  41  42  43  44  45 0
 3-21G
 ****


