%nproc=1
%NoSave
%Mem=1900MB
#P OB98/GEN NMR

erre ene a

0 1
  C      699.531    -273.419    -239.808
  O      700.276    -273.010    -238.674
  H      699.791    -274.449    -240.047
  H      699.763    -272.785    -240.667
  H      698.457    -273.371    -239.595
  P      700.065    -271.521    -238.124
  C      702.446    -270.537    -238.353
  O      701.133    -270.610    -238.894
  C      703.364    -269.755    -239.281
  O      703.470    -270.432    -240.550
  C      702.888    -268.340    -239.572
  O      703.240    -267.469    -238.513
  C      703.650    -268.054    -240.855
  O      705.027    -267.758    -240.554
  C      703.536    -269.409    -241.585
  N      701.500    -268.210    -246.070
  C      702.706    -267.826    -245.512
  N      703.455    -266.954    -246.239
  N      703.127    -268.230    -244.344
  C      702.246    -269.031    -243.712
  C      701.015    -269.467    -244.154
  C      700.592    -269.051    -245.472
  O      699.529    -269.390    -246.011
  N      700.369    -270.214    -243.200
  C      701.228    -270.263    -242.193
  N      702.373    -269.548    -242.458
  O      700.095    -271.348    -236.637
  O      698.664    -271.070    -238.758
  H      705.464    -267.603    -241.411
  H      697.925    -271.257    -238.152
  H      701.224    -267.839    -246.972
  H      701.070    -270.801    -241.268
  H      704.423    -269.622    -242.204
  H      703.246    -267.207    -241.418
  H      703.059    -266.410    -246.985
  H      701.809    -268.305    -239.790
  H      704.320    -266.629    -245.825
  H      704.364    -269.753    -238.834
  H      702.810    -271.558    -238.222
  H      702.421    -270.050    -237.365
  P      702.860    -265.900    -238.562
  C      705.358    -265.210    -238.357
  O      704.173    -265.187    -239.153
  O      702.372    -265.336    -237.279
  O      701.825    -265.780    -239.773
  H      700.883    -265.916    -239.499
  H      706.145    -264.701    -238.874
  H      705.647    -266.224    -238.177
  H      705.170    -264.722    -237.424

 6  7  8  9  10  11  12  13  14  15  26  29  33  34 0
 6-311+G(2d,p)
 ****
 36  38  39  40  41 0
 6-311+G(2d,p)
 ****
 1  2  3  4  5  16  17  18  19  20  21  22  23  24  25 0
 3-21G
 ****
 27  28  30  31  32  35  37  42  43  44  45  46  47 0
 3-21G
 ****
 48  49 0
 3-21G
 ****


