%nproc=1
%NoSave
%Mem=1900MB
#P OB98/GEN NMR

erre ene a

0 1
  C       10.413    -149.136       3.925
  O       11.240    -149.521       5.031
  P       11.484    -148.580       6.306
  C       10.907    -150.513       7.915
  O       10.662    -149.155       7.555
  C       11.540    -150.623       9.306
  O       12.728    -149.816       9.389
  C       10.651    -150.153      10.450
  O        9.649    -151.112      10.749
  C       11.683    -149.943      11.556
  O       12.006    -151.180      12.205
  C       12.893    -149.408      10.762
  N       13.042    -147.963      10.875
  C       14.003    -147.506      11.782
  O       14.630    -148.299      12.482
  N       14.205    -146.149      11.893
  C       13.467    -145.328      11.216
  N       13.721    -144.002      11.361
  C       12.383    -145.767      10.317
  C       12.233    -147.086      10.195
  O       11.248    -147.126       6.040
  O       13.013    -148.826       6.720
  H       12.789    -151.005      12.761
  H       13.371    -148.011       7.114
  H       11.773    -145.050       9.790
  H       11.467    -147.496       9.545
  H       13.817    -149.886      11.109
  H       11.333    -149.254      12.329
  H       10.191    -149.191      10.193
  H       11.835    -151.674       9.456
  H       14.473    -143.732      11.980
  H       11.590    -150.945       7.172
  H       13.206    -143.278      10.880
  H        9.961    -151.062       7.882
  P        8.114    -150.666      10.797
  C        7.076    -152.783       9.773
  O        7.360    -151.407       9.592
  O        7.867    -149.199      10.896
  O        7.540    -151.427      12.088
  H        6.832    -150.888      12.486
  H        6.249    -153.059       9.116
  H        6.798    -152.994      10.809
  H        7.958    -153.371       9.503
  H       10.401    -149.921       3.198
  H       10.804    -148.244       3.481
  H        9.417    -148.955       4.271

 3  4  5  6  7  8  9  10  11  12  13  23  27  28  29  30  32 0
 6-311+G(2d,p)
 ****
 34  35 0
 6-311+G(2d,p)
 ****
 1  2  14  15  16  17  18  19  20  21  22  24  25  26 0
 3-21G
 ****
 31  33  36  37  38  39  40  41  42  43  44  45  46 0
 3-21G
 ****


