%nproc=1
%NoSave
%Mem=1900MB
#P OB98/GEN NMR

erre ene a

0 1
  C       51.177     -32.501      -5.054
  O       50.260     -33.231      -5.843
  H       51.214     -31.460      -5.384
  H       50.846     -32.527      -4.012
  H       52.173     -32.948      -5.121
  P       50.546     -33.285      -7.421
  C       48.412     -31.895      -7.954
  O       49.107     -33.124      -8.115
  C       47.002     -32.037      -8.515
  O       46.303     -30.775      -8.427
  C       46.963     -32.431      -9.987
  O       47.121     -33.826     -10.183
  C       45.563     -31.977     -10.365
  O       44.596     -32.920      -9.870
  C       45.452     -30.649      -9.600
  N       44.928     -28.141     -14.032
  C       44.310     -29.236     -13.536
  N       44.492     -29.828     -12.339
  C       45.413     -29.171     -11.617
  C       46.120     -28.038     -11.987
  C       45.851     -27.518     -13.264
  N       46.500     -26.422     -13.786
  N       46.996     -27.664     -10.986
  C       46.805     -28.546     -10.026
  N       45.882     -29.495     -10.373
  O       50.905     -34.821      -7.691
  O       51.586     -32.343      -7.928
  H       43.732     -32.466      -9.866
  H       51.312     -34.925      -8.572
  H       43.577     -29.699     -14.190
  H       47.315     -28.546      -9.071
  H       44.433     -30.446      -9.252
  H       45.420     -31.905     -11.446
  H       47.693     -31.862     -10.575
  H       46.457     -32.763      -7.899
  H       48.947     -31.109      -8.496
  H       46.347     -26.216     -14.761
  H       47.289     -26.041     -13.284
  H       48.371     -31.637      -6.891
  P       48.259     -34.305     -11.211
  C       47.022     -33.277     -13.251
  O       47.545     -34.452     -12.640
  O       48.521     -35.820     -10.772
  O       49.506     -33.484     -11.187
  H       49.451     -36.071     -10.925
  H       46.580     -33.531     -14.192
  H       47.813     -32.574     -13.407
  H       46.280     -32.843     -12.613

 6  7  8  9  10  11  12  13  14  15  25  28  32  33  34  35 0
 6-311+G(2d,p)
 ****
 36  39  40 0
 6-311+G(2d,p)
 ****
 1  2  3  4  5  16  17  18  19  20  21  22  23  24 0
 3-21G
 ****
 26  27  29  30  31  37  38  41  42  43  44  45  46  47 0
 3-21G
 ****
 48 0
 3-21G
 ****


