%nproc=1
%NoSave
%Mem=1900MB
#P OB98/GEN NMR

erre ene a

0 1
  C      -15.593      20.717      39.538
  O      -15.193      22.035      39.860
  H      -15.270      20.024      40.319
  H      -16.682      20.688      39.469
  H      -15.170      20.417      38.574
  P      -13.615      22.297      39.977
  C      -13.664      24.766      39.182
  O      -13.443      23.868      40.258
  C      -14.113      26.123      39.714
  O      -15.361      25.992      40.424
  C      -13.147      26.773      40.700
  O      -12.064      27.406      40.037
  C      -14.063      27.788      41.367
  O      -14.217      28.937      40.513
  C      -15.388      27.015      41.454
  N      -17.657      27.455      46.017
  C      -17.699      28.228      44.911
  N      -17.083      28.035      43.726
  C      -16.378      26.893      43.741
  C      -16.257      25.990      44.783
  C      -16.934      26.308      45.973
  N      -16.829      25.541      47.122
  N      -15.433      24.940      44.428
  C      -15.049      25.216      43.200
  N      -15.598      26.382      42.740
  O      -13.112      22.121      38.465
  O      -12.888      21.389      40.912
  H      -13.406      29.470      40.611
  H      -12.765      21.218      38.347
  H      -18.303      29.126      44.989
  H      -14.375      24.609      42.611
  H      -16.254      27.655      41.250
  H      -13.681      28.147      42.326
  H      -12.799      26.056      41.453
  H      -14.290      26.781      38.853
  H      -14.440      24.363      38.523
  H      -16.943      26.076      47.978
  H      -16.077      24.863      47.104
  H      -12.735      24.869      38.615
  P      -10.577      27.008      40.491
  C       -9.410      27.301      38.200
  O       -9.576      27.804      39.520
  O      -10.451      25.488      40.003
  O      -10.300      27.132      41.948
  H      -10.214      24.918      40.760
  H       -8.721      27.922      37.666
  H      -10.354      27.301      37.697
  H       -9.029      26.302      38.244

 6  7  8  9  10  11  12  13  14  15  25  28  32  33  34  35 0
 6-311+G(2d,p)
 ****
 36  39  40 0
 6-311+G(2d,p)
 ****
 1  2  3  4  5  16  17  18  19  20  21  22  23  24 0
 3-21G
 ****
 26  27  29  30  31  37  38  41  42  43  44  45  46  47  48 0
 3-21G
 ****


