%nproc=1
%NoSave
%Mem=1900MB
#P OB98/GEN NMR

erre ene a

0 1
  C      503.872    -373.254     -46.919
  O      504.756    -374.068     -47.664
  H      504.050    -372.212     -47.188
  H      504.051    -373.373     -45.845
  H      502.831    -373.501     -47.160
  P      504.776    -375.646     -47.361
  C      506.406    -377.068     -45.930
  O      505.793    -375.799     -46.124
  C      507.558    -376.954     -44.930
  O      508.588    -376.058     -45.425
  C      507.173    -376.377     -43.574
  O      506.454    -377.288     -42.759
  C      508.556    -376.064     -43.015
  O      509.191    -377.281     -42.586
  C      509.257    -375.485     -44.276
  N      509.219    -374.025     -44.327
  C      510.056    -373.337     -43.446
  O      510.788    -373.951     -42.665
  N      510.025    -371.966     -43.433
  C      509.214    -371.326     -44.227
  N      509.188    -369.969     -44.137
  C      508.324    -372.010     -45.184
  C      508.365    -373.344     -45.183
  O      505.046    -376.537     -48.528
  O      503.365    -375.930     -46.653
  H      508.776    -377.532     -41.740
  H      503.321    -376.903     -46.460
  H      507.658    -371.437     -45.814
  H      507.733    -373.920     -45.844
  H      510.303    -375.812     -44.319
  H      508.533    -375.386     -42.164
  H      506.622    -375.438     -43.688
  H      508.016    -377.949     -44.840
  H      509.776    -369.536     -43.444
  H      506.761    -377.427     -46.904
  H      508.406    -369.434     -44.508
  H      505.678    -377.785     -45.531
  P      505.359    -376.702     -41.754
  C      505.496    -375.499     -39.437
  O      506.165    -375.865     -40.632
  O      504.857    -377.992     -40.962
  O      504.232    -375.932     -42.380
  H      504.049    -378.369     -41.380
  H      506.166    -374.954     -38.806
  H      505.166    -376.381     -38.929
  H      504.651    -374.886     -39.674

 6  7  8  9  10  11  12  13  14  15  16  26  30  31  32  33  35 0
 6-311+G(2d,p)
 ****
 37  38 0
 6-311+G(2d,p)
 ****
 1  2  3  4  5  17  18  19  20  21  22  23  24  25 0
 3-21G
 ****
 27  28  29  34  36  39  40  41  42  43  44  45  46 0
 3-21G
 ****


