%nproc=1
%NoSave
%Mem=1900MB
#P OB98/GEN NMR

erre ene a

0 1
  C      130.276      37.472      30.816
  O      130.472      36.954      32.117
  P      131.947      36.878      32.732
  C      133.138      34.624      33.058
  O      132.668      35.585      32.118
  C      131.996      33.710      33.497
  O      131.127      33.419      32.382
  C      132.453      32.355      34.023
  O      132.962      32.470      35.338
  C      131.168      31.544      33.904
  O      130.306      31.795      35.026
  C      130.554      32.113      32.618
  N      129.571      27.546      30.571
  C      129.343      28.048      31.803
  N      129.671      29.266      32.286
  C      130.319      29.982      31.353
  C      130.654      29.591      30.066
  C      130.228      28.313      29.669
  N      130.400      27.813      28.397
  N      131.350      30.598      29.423
  C      131.438      31.569      30.307
  N      130.775      31.268      31.463
  O      132.027      37.001      34.218
  O      132.717      38.089      32.022
  H      129.463      31.337      34.852
  H      133.025      38.719      32.701
  H      128.820      27.388      32.490
  H      131.953      32.509      30.152
  H      129.471      32.257      32.713
  H      131.352      30.466      33.871
  H      133.209      31.931      33.352
  H      131.406      34.241      34.256
  H      133.538      35.159      33.924
  H      129.931      26.948      28.179
  H      130.606      28.467      27.646
  H      133.941      34.035      32.604
  P      134.077      31.443      35.853
  C      133.304      29.668      37.534
  O      133.328      30.064      36.177
  O      134.975      31.951      36.931
  O      134.905      31.092      34.527
  H      135.835      30.917      34.762
  H      134.273      29.242      37.808
  H      132.531      28.907      37.665
  H      133.080      30.518      38.186
  H      129.234      37.445      30.575
  H      130.821      36.880      30.111
  H      130.625      38.483      30.778

 3  4  5  6  7  8  9  10  11  12  22  25  29  30  31  32 0
 6-311+G(2d,p)
 ****
 33  36  37 0
 6-311+G(2d,p)
 ****
 1  2  13  14  15  16  17  18  19  20  21  23  24  26 0
 3-21G
 ****
 27  28  34  35  38  39  40  41  42  43  44  45  46  47  48 0
 3-21G
 ****


