%nproc=1
%NoSave
%Mem=1900MB
#P OB98/GEN NMR

erre ene a

0 1
  C      519.904     851.721     -48.590
  O      520.745     850.597     -48.805
  P      520.143     849.117     -48.846
  C      521.470     848.685     -46.675
  O      520.202     848.580     -47.330
  C      521.387     848.121     -45.253
  O      520.511     848.927     -44.434
  C      520.852     846.702     -45.175
  O      521.847     845.757     -45.552
  C      520.432     846.624     -43.707
  O      521.557     846.323     -42.866
  C      519.921     848.059     -43.446
  N      518.465     848.140     -43.447
  C      517.834     847.890     -42.231
  O      518.508     847.583     -41.222
  N      516.464     847.934     -42.174
  C      515.790     848.187     -43.244
  N      514.432     848.207     -43.134
  C      516.417     848.423     -44.568
  C      517.737     848.382     -44.593
  O      520.736     848.211     -49.869
  O      518.564     849.376     -49.062
  H      521.954     845.496     -43.216
  H      518.375     849.657     -49.986
  H      515.801     848.615     -45.434
  H      518.285     848.542     -45.519
  H      520.284     848.416     -42.470
  H      519.687     845.845     -43.537
  H      519.963     846.604     -45.815
  H      522.399     848.161     -44.814
  H      514.033     848.013     -42.218
  H      521.750     849.737     -46.630
  H      513.807     848.346     -43.903
  H      522.228     848.151     -47.262
  P      521.474     844.211     -45.650
  C      523.498     843.400     -44.282
  O      522.089     843.488     -44.352
  O      521.790     843.557     -46.953
  O      519.902     844.178     -45.373
  H      519.471     843.573     -46.014
  H      523.785     843.209     -43.248
  H      523.964     844.340     -44.621
  H      523.842     842.575     -44.912
  H      520.493     852.614     -48.597
  H      519.415     851.624     -47.643
  H      519.170     851.771     -49.367

 3  4  5  6  7  8  9  10  11  12  13  23  27  28  29  30  32 0
 6-311+G(2d,p)
 ****
 34  35 0
 6-311+G(2d,p)
 ****
 1  2  14  15  16  17  18  19  20  21  22  24  25  26 0
 3-21G
 ****
 31  33  36  37  38  39  40  41  42  43  44  45  46 0
 3-21G
 ****


