%nproc=1
%NoSave
%Mem=1900MB
#P OB98/GEN NMR

erre ene a

0 1
  C     -591.675     606.127     163.248
  O     -592.326     605.229     164.109
  P     -593.123     605.680     165.412
  C     -595.485     605.020     164.486
  O     -594.637     606.044     164.994
  C     -596.432     604.486     165.580
  O     -597.042     605.630     166.250
  C     -597.568     603.649     164.979
  O     -597.868     602.477     165.730
  C     -598.688     604.667     164.793
  O     -599.979     604.082     164.683
  C     -598.466     605.594     165.991
  N     -602.126     608.582     164.122
  C     -602.142     607.219     164.304
  N     -603.160     606.539     163.752
  N     -601.189     606.577     164.941
  C     -600.154     607.353     165.321
  C     -600.054     608.722     165.205
  C     -601.109     609.433     164.536
  O     -601.096     610.633     164.255
  N     -598.834     609.174     165.663
  C     -598.198     608.079     166.037
  N     -598.947     606.948     165.815
  O     -592.417     606.606     166.355
  O     -593.327     604.268     166.178
  H     -599.916     603.383     164.004
  H     -593.284     604.451     167.133
  H     -602.859     609.013     163.548
  H     -597.198     608.049     166.439
  H     -598.953     605.209     166.889
  H     -598.491     605.192     163.852
  H     -603.811     606.997     163.139
  H     -597.275     603.249     164.008
  H     -603.073     605.537     163.648
  H     -595.844     603.943     166.337
  H     -594.823     604.219     164.142
  H     -596.044     605.383     163.629
  P     -598.612     601.146     165.263
  C     -596.445     599.801     164.934
  O     -597.605     600.318     164.318
  O     -599.737     601.626     164.247
  O     -599.227     600.341     166.352
  H     -600.548     601.105     164.362
  H     -595.725     599.521     164.152
  H     -596.692     598.934     165.530
  H     -595.978     600.568     165.578
  H     -591.214     605.585     162.449
  H     -590.927     606.664     163.792
  H     -592.388     606.816     162.846

 3  4  5  6  7  8  9  10  11  12  23  26  30  31 0
 6-311+G(2d,p)
 ****
 33  35  36  37  38 0
 6-311+G(2d,p)
 ****
 1  2  13  14  15  16  17  18  19  20  21  22  24  25 0
 3-21G
 ****
 27  28  29  32  34  39  40  41  42  43  44  45  46  47  48  49 0
 3-21G
 ****


