%nproc=1
%NoSave
%Mem=1900MB
#P OB98/GEN NMR

erre ene a

0 1
  C      -37.704      16.616     -23.795
  O      -36.652      16.501     -24.733
  H      -37.892      15.631     -23.358
  H      -38.620      16.967     -24.276
  H      -37.418      17.304     -22.994
  P      -36.358      17.752     -25.695
  C      -36.900      16.201     -27.687
  O      -37.166      17.449     -27.052
  C      -37.656      16.090     -29.013
  O      -39.034      15.739     -28.772
  C      -37.708      17.390     -29.799
  O      -36.465      17.793     -30.331
  C      -38.888      17.161     -30.733
  O      -38.536      16.481     -31.934
  C      -39.806      16.260     -29.872
  N      -40.995      16.968     -29.416
  C      -41.912      17.311     -30.403
  O      -41.748      17.066     -31.598
  N      -43.020      17.991     -29.978
  C      -43.266      18.396     -28.698
  O      -44.260      19.041     -28.388
  C      -42.247      18.027     -27.703
  C      -41.174      17.340     -28.100
  O      -34.912      18.082     -25.913
  O      -37.196      18.944     -25.035
  H      -39.358      16.366     -32.450
  H      -36.894      19.821     -25.372
  H      -43.701      18.239     -30.677
  H      -42.408      18.335     -26.678
  H      -40.406      17.058     -27.383
  H      -40.138      15.391     -30.456
  H      -39.356      18.104     -31.025
  H      -38.014      18.189     -29.113
  H      -37.200      15.288     -29.604
  H      -37.238      15.406     -27.013
  H      -35.824      16.092     -27.850
  P      -36.253      19.166     -31.121
  C      -35.857      17.724     -33.246
  O      -36.469      18.882     -32.688
  O      -35.095      20.012     -30.700
  O      -37.600      19.965     -30.733
  H      -37.371      20.913     -30.674
  H      -36.087      17.667     -34.289
  H      -36.228      16.851     -32.751
  H      -34.796      17.784     -33.117

 6  7  8  9  10  11  12  13  14  15  16  26  31  32  33  34  35 0
 6-311+G(2d,p)
 ****
 36  37 0
 6-311+G(2d,p)
 ****
 1  2  3  4  5  17  18  19  20  21  22  23  24  25 0
 3-21G
 ****
 27  28  29  30  38  39  40  41  42  43  44  45 0
 3-21G
 ****


