%nproc=1
%NoSave
%Mem=1900MB
#P OB98/GEN NMR

erre ene a

0 1
  C      468.707      56.079    -300.574
  O      469.534      57.237    -300.527
  P      470.049      57.936    -299.185
  C      472.067      56.315    -298.767
  O      471.613      57.632    -299.028
  C      473.604      56.191    -298.757
  O      473.982      54.836    -298.376
  C      474.167      56.418    -300.159
  O      474.390      57.739    -300.629
  C      475.390      55.518    -300.236
  O      476.594      56.203    -299.892
  C      475.087      54.431    -299.200
  N      475.832      49.361    -299.148
  C      476.393      50.333    -298.350
  N      477.311      49.914    -297.448
  N      476.100      51.605    -298.434
  C      475.233      51.892    -299.435
  C      474.623      51.019    -300.302
  C      474.911      49.604    -300.164
  O      474.433      48.707    -300.842
  N      473.826      51.685    -301.207
  C      473.966      52.960    -300.890
  N      474.812      53.137    -299.819
  O      469.191      57.724    -297.981
  O      470.000      59.507    -299.543
  H      476.591      56.358    -298.930
  H      469.786      59.979    -298.714
  H      476.076      48.394    -299.029
  H      473.488      53.779    -301.396
  H      475.940      54.275    -298.528
  H      475.525      55.136    -301.257
  H      477.668      48.973    -297.413
  H      473.446      55.988    -300.864
  H      477.882      50.648    -297.013
  H      474.041      56.848    -298.000
  H      471.633      55.665    -299.533
  H      471.663      55.962    -297.809
  P      473.844      58.360    -302.000
  C      471.599      59.437    -301.400
  O      472.978      59.657    -301.647
  O      472.727      57.315    -302.482
  O      474.880      58.558    -303.059
  H      472.516      57.455    -303.428
  H      471.069      60.390    -301.479
  H      471.459      59.039    -300.392
  H      471.176      58.735    -302.126
  H      468.511      55.822    -301.594
  H      467.783      56.280    -300.073
  H      469.205      55.265    -300.090

 3  4  5  6  7  8  9  10  11  12  23  26  30  31 0
 6-311+G(2d,p)
 ****
 33  35  36  37  38 0
 6-311+G(2d,p)
 ****
 1  2  13  14  15  16  17  18  19  20  21  22  24  25 0
 3-21G
 ****
 27  28  29  32  34  39  40  41  42  43  44  45  46  47  48  49 0
 3-21G
 ****


