%nproc=1
%NoSave
%Mem=1900MB
#P OB98/GEN NMR

erre ene a

0 1
  C      177.039    -188.791     -63.941
  O      176.954    -188.843     -65.364
  P      175.760    -188.064     -66.096
  C      174.123    -189.926     -66.804
  O      174.404    -188.892     -65.865
  C      172.614    -190.154     -66.923
  O      172.050    -190.645     -65.692
  C      171.842    -188.883     -67.244
  O      172.016    -188.508     -68.599
  C      170.425    -189.296     -66.859
  O      169.802    -190.036     -67.918
  C      170.672    -190.216     -65.642
  N      170.363    -189.583     -64.370
  C      169.040    -189.710     -63.928
  O      168.209    -190.301     -64.618
  N      168.696    -189.157     -62.720
  C      169.585    -188.521     -62.018
  N      169.190    -188.000     -60.829
  C      170.987    -188.352     -62.459
  C      171.299    -188.892     -63.630
  O      176.023    -187.651     -67.504
  O      175.547    -186.780     -65.153
  H      168.839    -189.948     -67.778
  H      175.222    -186.038     -65.698
  H      171.694    -187.820     -61.837
  H      172.303    -188.813     -64.035
  H      170.064    -191.122     -65.722
  H      169.792    -188.423     -66.656
  H      172.177    -188.071     -66.589
  H      172.447    -190.900     -67.712
  H      168.223    -188.116     -60.558
  H      174.617    -190.849     -66.486
  H      169.819    -187.529     -60.194
  H      174.559    -189.649     -67.772
  P      172.539    -187.024     -68.894
  C      170.346    -185.863     -69.653
  O      171.327    -186.017     -68.641
  O      172.698    -187.016     -70.493
  O      173.826    -186.665     -68.222
  H      173.452    -186.448     -70.741
  H      169.457    -185.410     -69.216
  H      170.075    -186.826     -70.091
  H      170.731    -185.199     -70.433
  H      177.885    -189.358     -63.613
  H      176.148    -189.202     -63.515
  H      177.148    -187.774     -63.627

 3  4  5  6  7  8  9  10  11  12  13  23  27  28  29  30  32 0
 6-311+G(2d,p)
 ****
 34  35 0
 6-311+G(2d,p)
 ****
 1  2  14  15  16  17  18  19  20  21  22  24  25  26 0
 3-21G
 ****
 31  33  36  37  38  39  40  41  42  43  44  45  46 0
 3-21G
 ****


