%nproc=1
%NoSave
%Mem=1900MB
#P OB98/GEN NMR

erre ene a

0 1
  C     -301.141     199.101     -64.447
  O     -301.364     198.328     -63.283
  H     -301.870     198.809     -65.206
  H     -300.135     198.917     -64.833
  H     -301.268     200.162     -64.223
  P     -300.404     198.625     -62.032
  C     -301.716     200.231     -60.482
  O     -300.809     200.106     -61.568
  C     -301.725     201.664     -59.954
  O     -300.416     202.042     -59.492
  C     -302.117     202.711     -60.990
  O     -303.525     202.773     -61.140
  C     -301.563     203.970     -60.345
  O     -302.465     204.430     -59.320
  C     -300.255     203.470     -59.701
  N     -296.480     206.771     -60.799
  C     -297.621     206.916     -60.093
  N     -298.598     206.008     -59.880
  C     -298.311     204.845     -60.484
  C     -297.185     204.550     -61.239
  C     -296.234     205.574     -61.381
  N     -295.065     205.419     -62.096
  N     -297.234     203.254     -61.703
  C     -298.344     202.758     -61.194
  N     -299.049     203.693     -60.478
  O     -298.954     198.373     -62.256
  O     -301.087     197.717     -60.903
  H     -303.255     204.790     -59.764
  H     -302.057     197.746     -60.980
  H     -297.771     207.890     -59.636
  H     -298.672     201.731     -61.299
  H     -300.084     203.929     -58.723
  H     -301.448     204.788     -61.058
  H     -301.606     202.542     -61.943
  H     -302.398     201.699     -59.089
  H     -301.443     199.540     -59.676
  H     -294.525     206.249     -62.290
  H     -294.944     204.571     -62.627
  H     -302.709     199.958     -60.850
  P     -304.186     202.980     -62.585
  C     -305.391     200.709     -62.567
  O     -304.403     201.513     -63.201
  O     -303.464     203.926     -63.478
  O     -305.676     203.468     -62.279
  H     -305.951     204.144     -62.927
  H     -305.448     199.760     -63.059
  H     -306.341     201.199     -62.625
  H     -305.127     200.563     -61.540

 6  7  8  9  10  11  12  13  14  15  25  28  32  33  34  35 0
 6-311+G(2d,p)
 ****
 36  39  40 0
 6-311+G(2d,p)
 ****
 1  2  3  4  5  16  17  18  19  20  21  22  23  24 0
 3-21G
 ****
 26  27  29  30  31  37  38  41  42  43  44  45  46  47 0
 3-21G
 ****
 48 0
 3-21G
 ****


