%nproc=1
%NoSave
%Mem=1900MB
#P OB98/GEN NMR

erre ene a

0 1
  C     -110.909    -450.381    -156.302
  O     -110.596    -450.297    -157.690
  P     -109.141    -450.520    -158.308
  C     -107.053    -449.006    -158.794
  O     -108.344    -449.132    -158.214
  C     -106.678    -447.546    -159.124
  O     -107.599    -447.026    -160.119
  C     -106.831    -446.663    -157.887
  O     -105.789    -446.590    -156.929
  C     -107.265    -445.310    -158.433
  O     -106.167    -444.422    -158.642
  C     -107.928    -445.664    -159.766
  N     -111.873    -442.450    -160.296
  C     -110.518    -442.182    -160.325
  N     -110.162    -440.885    -160.467
  N     -109.596    -443.101    -160.212
  C     -110.089    -444.340    -159.989
  C     -111.407    -444.731    -159.920
  C     -112.424    -443.712    -160.106
  O     -113.638    -443.896    -160.104
  N     -111.523    -446.070    -159.660
  C     -110.280    -446.488    -159.549
  N     -109.368    -445.475    -159.746
  O     -109.096    -451.235    -159.617
  O     -108.408    -451.454    -157.214
  H     -106.523    -443.587    -159.003
  H     -107.792    -452.029    -157.707
  H     -112.540    -441.707    -160.415
  H     -109.984    -447.512    -159.334
  H     -107.543    -445.031    -160.581
  H     -107.940    -444.807    -157.725
  H     -110.819    -440.121    -160.436
  H     -107.698    -447.044    -157.325
  H     -109.187    -440.661    -160.268
  H     -105.685    -447.494    -159.573
  H     -107.051    -449.615    -159.701
  H     -106.302    -449.438    -158.127
  P     -105.967    -446.496    -155.342
  C     -107.181    -444.950    -153.695
  O     -106.651    -445.092    -155.004
  O     -104.472    -446.294    -154.797
  O     -106.610    -447.684    -154.704
  H     -104.432    -446.480    -153.843
  H     -107.876    -444.108    -153.681
  H     -106.363    -444.753    -152.991
  H     -107.710    -445.856    -153.389
  H     -111.952    -450.190    -156.159
  H     -110.336    -449.656    -155.763
  H     -110.674    -451.361    -155.942

 3  4  5  6  7  8  9  10  11  12  23  26  30  31 0
 6-311+G(2d,p)
 ****
 33  35  36  37  38 0
 6-311+G(2d,p)
 ****
 1  2  13  14  15  16  17  18  19  20  21  22  24  25 0
 3-21G
 ****
 27  28  29  32  34  39  40  41  42  43  44  45  46  47  48  49 0
 3-21G
 ****


