%nproc=1
%NoSave
%Mem=1900MB
#P OB98/GEN NMR

erre ene a

0 1
  C      -82.235    -136.958    -479.690
  O      -82.743    -138.230    -480.090
  P      -82.542    -138.626    -481.636
  C      -83.805    -138.231    -483.868
  O      -83.723    -137.927    -482.478
  C      -84.596    -137.152    -484.626
  O      -85.996    -137.148    -484.221
  C      -84.060    -135.731    -484.421
  O      -84.255    -135.021    -485.654
  C      -85.005    -135.167    -483.369
  O      -84.961    -133.739    -483.334
  C      -86.316    -135.779    -483.846
  N      -90.736    -133.693    -482.568
  C      -89.895    -133.406    -483.618
  N      -90.312    -132.465    -484.496
  N      -88.740    -134.006    -483.809
  C      -88.476    -134.958    -482.882
  C      -89.240    -135.342    -481.793
  C      -90.493    -134.649    -481.582
  O      -91.281    -134.864    -480.670
  N      -88.640    -136.360    -481.095
  C      -87.492    -136.550    -481.716
  N      -87.362    -135.752    -482.841
  O      -82.926    -140.183    -481.667
  O      -81.160    -138.373    -482.139
  H      -85.295    -133.413    -484.195
  H      -82.108    -140.724    -481.672
  H      -91.605    -133.200    -482.465
  H      -86.726    -137.242    -481.427
  H      -86.723    -135.273    -484.724
  H      -84.724    -135.537    -482.377
  H      -91.208    -132.010    -484.436
  H      -83.004    -135.683    -484.117
  H      -89.733    -132.261    -485.303
  H      -84.570    -137.405    -485.700
  H      -84.299    -139.196    -483.998
  H      -82.790    -138.339    -484.269
  P      -83.238    -133.830    -486.003
  C      -83.271    -131.306    -485.451
  O      -84.015    -132.455    -485.815
  O      -83.071    -133.951    -487.599
  O      -81.900    -133.931    -485.324
  H      -82.144    -133.779    -487.842
  H      -83.802    -130.410    -485.809
  H      -82.271    -131.319    -485.884
  H      -83.200    -131.247    -484.365
  H      -82.427    -136.809    -478.648
  H      -82.717    -136.188    -480.255
  H      -81.180    -136.923    -479.867

 3  4  5  6  7  8  9  10  11  12  23  26  30  31 0
 6-311+G(2d,p)
 ****
 33  35  36  37  38 0
 6-311+G(2d,p)
 ****
 1  2  13  14  15  16  17  18  19  20  21  22  24  25 0
 3-21G
 ****
 27  28  29  32  34  39  40  41  42  43  44  45  46  47  48  49 0
 3-21G
 ****


