%nproc=1
%NoSave
%Mem=1900MB
#P OB98/GEN NMR

erre ene a

0 1
  C      231.356     548.792    -269.323
  O      231.506     549.669    -268.217
  H      231.947     547.884    -269.163
  H      230.301     548.517    -269.418
  H      231.680     549.289    -270.241
  P      232.984     550.204    -267.904
  C      232.155     552.572    -267.228
  O      232.928     551.793    -268.133
  C      231.178     553.444    -268.020
  O      230.403     552.628    -268.926
  C      230.161     554.183    -267.160
  O      230.697     555.365    -266.582
  C      229.095     554.510    -268.192
  O      229.524     555.621    -269.001
  C      229.074     553.218    -269.032
  N      224.602     550.976    -270.125
  C      225.317     551.927    -270.769
  N      226.495     552.472    -270.405
  C      226.938     551.943    -269.252
  C      226.312     550.977    -268.478
  C      225.087     550.476    -268.968
  N      224.345     549.513    -268.296
  N      227.053     550.712    -267.340
  C      228.108     551.480    -267.444
  N      228.086     552.248    -268.574
  O      233.842     549.685    -269.163
  O      233.566     549.779    -266.600
  H      229.634     556.381    -268.400
  H      234.787     549.665    -268.926
  H      224.881     552.303    -271.691
  H      228.927     551.510    -266.728
  H      228.883     553.411    -270.094
  H      228.133     554.779    -267.754
  H      229.720     553.524    -266.389
  H      231.765     554.155    -268.628
  H      232.819     553.212    -266.639
  H      223.404     549.365    -268.636
  H      224.622     549.258    -267.367
  H      231.610     551.902    -266.558
  P      230.128     555.815    -265.149
  C      232.269     556.961    -264.185
  O      231.394     555.823    -264.159
  O      229.297     554.545    -264.671
  O      229.312     557.066    -265.168
  H      228.588     554.801    -264.048
  H      233.058     556.820    -263.476
  H      231.716     557.842    -263.933
  H      232.685     557.069    -265.165

 6  7  8  9  10  11  12  13  14  15  25  28  32  33  34  35 0
 6-311+G(2d,p)
 ****
 36  39  40 0
 6-311+G(2d,p)
 ****
 1  2  3  4  5  16  17  18  19  20  21  22  23  24 0
 3-21G
 ****
 26  27  29  30  31  37  38  41  42  43  44  45  46  47 0
 3-21G
 ****
 48 0
 3-21G
 ****


