%nproc=1
%NoSave
%Mem=1900MB
#P OB98/GEN NMR

erre ene a

0 1
  C     -115.569      -9.877     -59.804
  O     -116.605      -9.995     -60.755
  H     -115.193     -10.876     -59.573
  H     -115.958      -9.428     -58.886
  H     -114.744      -9.274     -60.189
  P     -117.114      -8.678     -61.508
  C     -119.458      -9.749     -61.365
  O     -118.533      -9.030     -62.167
  C     -120.040     -10.939     -62.138
  O     -119.034     -11.981     -62.225
  C     -121.247     -11.543     -61.414
  O     -122.158     -12.165     -62.315
  C     -120.611     -12.612     -60.538
  O     -121.524     -13.641     -60.159
  C     -119.472     -13.096     -61.432
  N     -117.868     -16.623     -58.121
  C     -119.158     -16.283     -58.477
  N     -120.151     -16.977     -57.872
  N     -119.448     -15.334     -59.328
  C     -118.361     -14.678     -59.799
  C     -117.036     -14.908     -59.503
  C     -116.726     -15.984     -58.585
  O     -115.602     -16.312     -58.218
  N     -116.216     -14.031     -60.168
  C     -117.040     -13.271     -60.859
  N     -118.351     -13.640     -60.688
  O     -116.155      -8.581     -62.788
  O     -117.081      -7.417     -60.700
  H     -121.042     -14.260     -59.580
  H     -116.129      -7.667     -63.123
  H     -117.698     -17.381     -57.483
  H     -116.741     -12.457     -61.506
  H     -119.822     -13.877     -62.117
  H     -120.260     -12.136     -59.619
  H     -119.974     -17.569     -57.075
  H     -121.784     -10.814     -60.813
  H     -121.076     -16.541     -57.880
  H     -120.275     -10.640     -63.165
  H     -120.248      -9.050     -61.084
  H     -118.980     -10.085     -60.443
  P     -123.728     -11.943     -62.091
  C     -124.690     -14.211     -63.056
  O     -124.554     -12.810     -63.145
  O     -123.969     -10.436     -62.563
  O     -124.188     -12.170     -60.685
  H     -124.254      -9.885     -61.810
  H     -125.285     -14.564     -63.872
  H     -125.165     -14.465     -62.132
  H     -123.723     -14.667     -63.097

 6  7  8  9  10  11  12  13  14  15  26  29  33  34 0
 6-311+G(2d,p)
 ****
 36  38  39  40  41 0
 6-311+G(2d,p)
 ****
 1  2  3  4  5  16  17  18  19  20  21  22  23  24  25 0
 3-21G
 ****
 27  28  30  31  32  35  37  42  43  44  45  46  47 0
 3-21G
 ****
 48  49 0
 3-21G
 ****


