%nproc=1
%NoSave
%Mem=1900MB
#P OB98/GEN NMR

erre ene a

0 1
  C     -111.510     291.910     -66.881
  O     -111.724     290.723     -67.619
  H     -110.899     292.590     -67.478
  H     -110.984     291.682     -65.949
  H     -112.466     292.395     -66.659
  P     -112.623     289.597     -66.914
  C     -110.858     287.690     -67.134
  O     -111.593     288.547     -66.274
  C     -110.433     286.420     -66.388
  O     -109.465     286.785     -65.360
  C     -111.589     285.701     -65.673
  O     -111.270     284.300     -65.615
  C     -111.509     286.300     -64.278
  O     -112.270     285.551     -63.360
  C     -109.993     286.318     -64.098
  N     -108.275     286.423     -59.285
  C     -108.571     285.397     -60.111
  N     -109.012     285.446     -61.384
  C     -109.120     286.719     -61.801
  C     -108.845     287.869     -61.074
  C     -108.407     287.686     -59.753
  N     -108.110     288.729     -58.906
  N     -109.080     288.995     -61.842
  C     -109.486     288.534     -63.006
  N     -109.536     287.167     -63.026
  O     -113.255     288.804     -68.151
  O     -113.669     290.102     -65.979
  H     -113.227     285.630     -63.555
  H     -114.144     289.154     -68.351
  H     -108.440     284.402     -59.692
  H     -109.766     289.140     -63.860
  H     -109.592     285.313     -63.922
  H     -111.914     287.317     -64.267
  H     -112.555     285.835     -66.166
  H     -109.916     285.750     -67.086
  H     -109.972     288.228     -67.486
  H     -111.477     287.416     -67.993
  H     -107.817     288.513     -57.968
  H     -108.220     289.676     -59.237
  P     -112.166     283.259     -66.448
  C     -113.777     282.846     -64.428
  O     -113.631     283.204     -65.794
  O     -111.549     281.850     -65.992
  O     -112.117     283.402     -67.934
  H     -111.673     281.196     -66.704
  H     -114.814     282.861     -64.164
  H     -113.243     283.544     -63.817
  H     -113.384     281.863     -64.273

 6  7  8  9  10  11  12  13  14  15  25  28  32  33  34  35 0
 6-311+G(2d,p)
 ****
 36  37  40 0
 6-311+G(2d,p)
 ****
 1  2  3  4  5  16  17  18  19  20  21  22  23  24 0
 3-21G
 ****
 26  27  29  30  31  38  39 41  42  43  44  45  46  47  48 0
 3-21G
 ****


