%nproc=1
%NoSave
%Mem=1900MB
#P OB98/GEN NMR

erre ene a

0 1
  C      -41.336     426.346     -60.617
  O      -41.846     427.651     -60.874
  P      -42.064     428.647     -59.637
  C      -41.844     431.272     -59.389
  O      -42.191     430.147     -60.167
  C      -42.403     432.545     -60.055
  O      -41.604     432.893     -61.209
  C      -43.841     432.387     -60.535
  O      -44.776     432.672     -59.513
  C      -43.893     433.369     -61.693
  O      -44.020     434.714     -61.204
  C      -42.497     433.158     -62.332
  N      -42.340     432.067     -63.317
  C      -43.138     432.050     -64.461
  O      -43.988     432.893     -64.724
  N      -42.916     431.014     -65.333
  C      -41.898     430.112     -65.276
  O      -41.706     429.241     -66.114
  C      -40.992     430.265     -64.124
  C      -41.255     431.206     -63.213
  O      -40.663     428.621     -58.876
  O      -43.204     428.268     -58.735
  H      -43.312     434.854     -60.547
  H      -40.765     428.238     -57.985
  H      -43.533     430.947     -66.131
  H      -40.141     429.597     -64.064
  H      -40.593     431.326     -62.361
  H      -42.151     434.071     -62.814
  H      -44.762     433.188     -62.325
  H      -44.002     431.379     -60.942
  H      -42.337     433.366     -59.332
  H      -40.757     431.352     -59.286
  H      -42.250     431.159     -58.380
  P      -45.426     431.473     -58.671
  C      -46.463     431.335     -56.330
  O      -46.170     432.174     -57.425
  O      -44.514     430.344     -58.324
  O      -46.655     430.990     -59.579
  H      -46.400     430.219     -60.135
  H      -46.820     431.960     -55.497
  H      -45.568     430.793     -56.005
  H      -47.248     430.625     -56.599
  H      -41.249     425.809     -61.539
  H      -42.003     425.825     -59.962
  H      -40.373     426.424     -60.157

 3  4  5  6  7  8  9  10  11  12  13  23  28  29  30  31  32 0
 6-311+G(2d,p)
 ****
 33  34 0
 6-311+G(2d,p)
 ****
 1  2  14  15  16  17  18  19  20  21  22  24  25  26  27 0
 3-21G
 ****
 35  36  37  38  39  40  41  42  43  44  45 0
 3-21G
 ****


