%nproc=1
%NoSave
%Mem=1900MB
#P OB98/GEN NMR

erre ene a

0 1
  C     -276.651     819.769     446.269
  O     -275.958     820.892     445.738
  P     -276.034     821.168     444.161
  C     -278.420     822.152     443.553
  O     -277.060     822.365     443.872
  C     -278.773     822.960     442.295
  O     -280.063     822.547     441.779
  C     -278.856     824.463     442.548
  O     -277.583     825.092     442.428
  C     -279.851     824.907     441.489
  O     -279.214     824.982     440.205
  C     -280.859     823.738     441.521
  N     -281.960     823.795     442.521
  C     -282.775     824.926     442.584
  O     -282.640     825.914     441.865
  N     -283.776     824.891     443.514
  C     -284.155     823.805     444.258
  O     -285.099     823.814     445.033
  C     -283.357     822.590     444.041
  C     -282.313     822.646     443.203
  O     -276.782     819.878     443.590
  O     -274.712     821.389     443.503
  H     -279.876     825.293     439.570
  H     -276.187     819.375     443.003
  H     -284.325     825.733     443.634
  H     -283.651     821.695     444.572
  H     -281.714     821.750     443.043
  H     -281.333     823.607     440.536
  H     -280.230     825.898     441.703
  H     -279.294     824.667     443.528
  H     -278.018     822.751     441.526
  H     -279.064     822.446     444.382
  H     -278.600     821.088     443.381
  P     -277.144     826.198     443.493
  C     -276.829     824.753     445.589
  O     -276.188     825.444     444.536
  O     -278.246     827.013     444.092
  O     -276.105     827.108     442.666
  H     -276.554     827.903     442.291
  H     -276.096     824.154     446.127
  H     -277.604     824.087     445.187
  H     -277.282     825.469     446.279
  H     -276.501     819.725     447.328
  H     -276.277     818.873     445.819
  H     -277.696     819.864     446.060

 3  4  5  6  7  8  9  10  11  12  13  23  28  29  30  31  32 0
 6-311+G(2d,p)
 ****
 33  34 0
 6-311+G(2d,p)
 ****
 1  2  14  15  16  17  18  19  20  21  22  24  25  26  27 0
 3-21G
 ****
 35  36  37  38  39  40  41  42  43  44  45 0
 3-21G
 ****


