%nproc=1
%NoSave
%Mem=1900MB
#P OB98/GEN NMR

erre ene a

0 1
  C      305.806     -67.218     209.620
  O      305.989     -66.482     210.833
  P      304.754     -66.463     211.856
  C      303.695     -68.322     213.328
  O      304.887     -67.734     212.824
  C      303.978     -69.740     213.823
  O      304.337     -70.623     212.738
  C      305.140     -69.819     214.806
  O      304.760     -69.336     216.083
  C      305.455     -71.309     214.759
  O      304.526     -72.045     215.572
  C      305.219     -71.639     213.276
  N      308.431     -74.661     210.681
  C      307.289     -74.924     211.355
  N      306.494     -74.063     212.024
  C      306.971     -72.811     211.939
  C      308.118     -72.390     211.284
  C      308.870     -73.381     210.633
  N      310.040     -73.116     209.959
  N      308.284     -71.027     211.421
  C      307.269     -70.637     212.168
  N      306.443     -71.677     212.494
  O      303.500     -66.818     210.929
  O      304.573     -65.153     212.552
  H      303.627     -71.826     215.257
  H      302.944     -66.028     210.802
  H      306.976     -75.965     211.364
  H      307.093     -69.618     212.492
  H      304.722     -72.607     213.141
  H      306.461     -71.546     215.115
  H      305.993     -69.241     214.428
  H      303.065     -70.125     214.296
  H      302.928     -68.349     212.551
  H      310.559     -73.894     209.588
  H      310.422     -72.181     209.991
  H      303.305     -67.692     214.135
  P      305.404     -67.953     216.581
  C      305.981     -65.807     215.290
  O      305.149     -66.951     215.348
  O      306.966     -68.264     216.462
  O      304.929     -67.479     217.910
  H      307.185     -68.701     215.619
  H      305.727     -65.237     214.393
  H      307.031     -66.106     215.237
  H      305.814     -65.179     216.168
  H      306.694     -67.154     209.027
  H      304.982     -66.807     209.074
  H      305.604     -68.243     209.852

 3  4  5  6  7  8  9  10  11  12  22  25  29  30  31  32 0
 6-311+G(2d,p)
 ****
 33  36  37 0
 6-311+G(2d,p)
 ****
 1  2  13  14  15  16  17  18  19  20  21  23  24  26 0
 3-21G
 ****
 27  28  34  35  38  39  40  41  42  43  44  45  46  47  48 0
 3-21G
 ****


