%nproc=1
%NoSave
%Mem=1900MB
#P OB98/GEN NMR

erre ene a

0 1
  C      -30.822     -12.960     121.689
  O      -29.931     -12.679     120.619
  P      -28.833     -11.528     120.828
  C      -29.108      -9.001     120.322
  O      -29.631     -10.143     120.984
  C      -28.652      -7.942     121.324
  O      -29.820      -7.275     121.874
  C      -27.846      -8.491     122.506
  O      -26.894      -7.486     122.875
  C      -28.886      -8.614     123.603
  O      -28.301      -8.648     124.901
  C      -29.737      -7.381     123.311
  N      -33.353      -4.937     125.972
  C      -32.138      -4.543     125.538
  N      -31.231      -5.251     124.833
  C      -31.687      -6.491     124.585
  C      -32.888      -7.044     124.995
  C      -33.751      -6.206     125.721
  N      -34.994      -6.601     126.156
  N      -32.987      -8.353     124.572
  C      -31.868      -8.586     123.920
  N      -31.063      -7.484     123.881
  O      -28.165     -11.414     119.379
  O      -27.813     -11.806     121.877
  H      -27.676      -9.397     124.935
  H      -27.244     -11.739     119.410
  H      -31.859      -3.521     125.781
  H      -31.594      -9.527     123.465
  H      -29.276      -6.460     123.691
  H      -29.461      -9.536     123.466
  H      -27.337      -9.438     122.299
  H      -28.072      -7.183     120.784
  H      -29.893      -8.571     119.693
  H      -35.607      -5.905     126.548
  H      -35.376      -7.476     125.813
  H      -28.274      -9.300     119.680
  P      -25.385      -7.968     123.119
  C      -24.145      -9.120     125.083
  O      -25.386      -8.812     124.478
  O      -24.623      -6.615     123.510
  O      -24.758      -8.632     121.937
  H      -23.683      -6.679     123.262
  H      -24.275      -9.135     126.168
  H      -23.373      -8.387     124.829
  H      -23.821     -10.110     124.751
  H      -31.490     -13.745     121.400
  H      -31.385     -12.081     121.924
  H      -30.262     -13.266     122.548

 3  4  5  6  7  8  9  10  11  12  22  25  29  30  31  32 0
 6-311+G(2d,p)
 ****
 33  36  37 0
 6-311+G(2d,p)
 ****
 1  2  13  14  15  16  17  18  19  20  21  23  24  26 0
 3-21G
 ****
 27  28  34  35  38  39  40  41  42  43  44  45  46  47  48 0
 3-21G
 ****


