%nproc=1
%NoSave
%Mem=1900MB
#P OB98/GEN NMR

erre ene a

0 1
  C      -24.342      35.847     214.317
  O      -25.310      36.899     214.188
  P      -25.380      37.671     212.781
  C      -26.213      39.942     213.794
  O      -26.488      38.815     212.974
  C      -27.501      40.718     214.067
  O      -28.299      40.047     215.074
  C      -27.278      42.128     214.600
  O      -26.842      43.008     213.571
  C      -28.653      42.443     215.170
  O      -29.551      42.846     214.123
  C      -29.087      41.067     215.734
  N      -28.967      40.979     217.183
  C      -29.798      41.829     217.914
  O      -30.571      42.629     217.386
  N      -29.689      41.744     219.277
  C      -28.836      40.931     219.963
  O      -28.794      40.885     221.189
  C      -27.949      40.094     219.139
  C      -28.049      40.155     217.810
  O      -26.091      36.572     211.866
  O      -24.042      38.132     212.303
  H      -26.751      36.043     212.345
  H      -30.449      42.832     214.509
  H      -30.293      42.339     219.822
  H      -27.239      39.455     219.651
  H      -27.403      39.546     217.183
  H      -30.132      40.863     215.466
  H      -28.627      43.251     215.911
  H      -26.535      42.108     215.408
  H      -28.083      40.753     213.131
  H      -25.495      40.600     213.294
  H      -25.751      39.597     214.727
  P      -25.321      43.526     213.656
  C      -25.733      46.090     213.946
  O      -25.324      45.033     213.111
  O      -24.642      42.680     212.475
  O      -24.692      43.323     214.996
  H      -25.177      42.661     211.665
  H      -25.343      47.032     213.540
  H      -25.355      45.968     214.963
  H      -26.825      46.142     213.964
  H      -24.405      35.423     215.297
  H      -23.361      36.244     214.162
  H      -24.539      35.090     213.587

 3  4  5  6  7  8  9  10  11  12  13  24  28  29  30  31  32 0
 6-311+G(2d,p)
 ****
 33  34 0
 6-311+G(2d,p)
 ****
 1  2  14  15  16  17  18  19  20  21  22  23  25  26  27 0
 3-21G
 ****
 35  36  37  38  39  40  41  42  43  44  45 0
 3-21G
 ****


