%nproc=1
%NoSave
%Mem=1900MB
#P OB98/GEN NMR

erre ene a

0 1
  C      657.216    -899.310     514.430
  O      656.668    -898.000     514.532
  H      656.454    -900.000     514.058
  H      658.043    -899.290     513.724
  H      657.576    -899.640     515.407
  P      655.430    -897.810     515.534
  C      657.079    -897.070     517.398
  O      656.040    -897.960     517.010
  C      656.475    -895.920     518.212
  O      656.020    -896.400     519.498
  C      657.460    -894.800     518.547
  O      657.613    -893.890     517.442
  C      656.771    -894.130     519.709
  O      655.669    -893.320     519.237
  C      656.235    -895.350     520.485
  N      656.807    -896.090     525.502
  C      655.794    -895.560     524.800
  N      655.740    -895.400     523.452
  C      656.836    -895.830     522.860
  C      657.977    -896.370     523.463
  C      657.932    -896.500     524.857
  N      658.963    -897.020     525.608
  N      658.938    -896.660     522.512
  C      658.391    -896.330     521.378
  N      657.136    -895.820     521.520
  O      654.585    -899.150     515.358
  O      654.607    -896.580     515.318
  H      655.040    -893.930     518.809
  H      653.658    -899.020     515.652
  H      654.928    -895.250     525.354
  H      658.872    -896.460     520.396
  H      655.266    -895.160     520.963
  H      657.424    -893.480     520.290
  H      658.431    -895.200     518.866
  H      655.602    -895.520     517.676
  H      657.552    -896.660     516.500
  H      658.915    -896.890     526.611
  H      659.854    -897.180     525.140
  H      657.814    -897.600     518.002
  P      659.020    -893.110     517.318
  C      659.887    -894.280     515.142
  O      660.004    -894.120     516.559
  O      659.559    -893.100     518.807
  O      658.907    -891.740     516.734
  H      660.150    -892.320     518.973
  H      660.615    -894.986     514.801
  H      660.052    -893.338     514.662
  H      658.906    -894.635     514.903

 6  7  8  9  10  11  12  13  14  15  25  28  32  33  34  35 0
 6-311+G(2d,p)
 ****
 36  39  40 0
 6-311+G(2d,p)
 ****
 1  2  3  4  5  16  17  18  19  20  21  22  23  24 0
 3-21G
 ****
 26  27  29  30  31  37  38  41  42  43  44  45  46  47 0
 3-21G
 ****
 48 0
 3-21G
 ****


