%nproc=1
%NoSave
%Mem=1900MB
#P OB98/GEN NMR

erre ene a

0 1
  C     -111.437      53.353    -888.285
  O     -111.354      54.741    -888.551
  H     -112.145      53.169    -887.471
  H     -111.797      52.842    -889.183
  H     -110.450      52.959    -888.030
  P     -110.829      55.678    -887.357
  C     -108.597      56.227    -888.575
  O     -109.817      56.722    -888.035
  C     -107.757      57.386    -889.104
  O     -108.461      58.064    -890.161
  C     -107.444      58.457    -888.061
  O     -106.356      58.092    -887.230
  C     -107.082      59.624    -888.967
  O     -105.748      59.443    -889.483
  C     -108.115      59.481    -890.092
  N     -110.225      64.134    -890.382
  C     -108.980      63.688    -890.650
  N     -108.492      62.434    -890.548
  C     -109.450      61.594    -890.106
  C     -110.761      61.903    -889.786
  C     -111.146      63.246    -889.945
  N     -112.411      63.710    -889.655
  N     -111.432      60.784    -889.335
  C     -110.549      59.809    -889.418
  N     -109.328      60.252    -889.867
  O     -109.856      54.716    -886.526
  O     -111.886      56.295    -886.509
  H     -105.136      59.662    -888.751
  H     -109.739      55.063    -885.618
  H     -108.275      64.441    -891.001
  H     -110.735      58.771    -889.163
  H     -107.714      59.773    -891.067
  H     -107.103      60.591    -888.446
  H     -108.339      58.717    -887.469
  H     -106.830      56.972    -889.526
  H     -108.825      55.538    -889.396
  H     -112.531      64.704    -889.625
  H     -113.056      63.087    -889.182
  H     -108.049      55.679    -887.799
  P     -106.261      58.787    -885.786
  C     -107.980      57.249    -884.581
  O     -106.621      57.647    -884.724
  O     -107.556      59.738    -885.752
  O     -105.005      59.543    -885.537
  H     -107.424      60.496    -885.159
  H     -108.051      56.484    -883.837
  H     -108.342      56.873    -885.515
  H     -108.569      58.091    -884.284

 6  7  8  9  10  11  12  13  14  15  25  28  32  33  34  35 0
 6-311+G(2d,p)
 ****
 36  39  40 0
 6-311+G(2d,p)
 ****
 1  2  3  4  5  16  17  18  19  20  21  22  23  24 0
 3-21G
 ****
 26  27  29  30  31  37  38  41  42  43  44  45  46  47 0
 3-21G
 ****
 48 0
 3-21G
 ****


