%nproc=1
%NoSave
%Mem=1900MB
#P OB98/GEN NMR

erre ene a

0 1
  C     -188.504     138.530     -59.917
  O     -189.439     137.749     -59.205
  H     -187.954     139.151     -59.205
  H     -189.018     139.184     -60.625
  H     -187.791     137.895     -60.449
  P     -190.265     136.624     -59.993
  C     -188.510     135.001     -59.033
  O     -189.290     135.365     -60.166
  C     -188.147     133.520     -59.108
  O     -189.279     132.713     -58.718
  C     -187.774     133.048     -60.507
  O     -186.476     133.473     -60.872
  C     -187.944     131.546     -60.356
  O     -186.788     130.953     -59.751
  C     -189.163     131.451     -59.413
  N     -190.393     131.132     -60.137
  C     -190.579     129.795     -60.471
  O     -189.783     128.905     -60.182
  N     -191.696     129.518     -61.213
  C     -192.541     130.444     -61.755
  O     -193.377     130.173     -62.610
  C     -192.331     131.831     -61.317
  C     -191.276     132.110     -60.550
  O     -190.944     137.078     -61.242
  O     -191.325     136.108     -58.908
  H     -192.196     136.506     -59.096
  H     -186.029     131.217     -60.311
  H     -191.816     128.555     -61.496
  H     -193.024     132.586     -61.668
  H     -191.079     133.132     -60.242
  H     -188.997     130.682     -58.649
  H     -188.100     131.061     -61.320
  H     -188.510     133.417     -61.230
  H     -187.331     133.328     -58.400
  H     -189.097     135.186     -58.127
  H     -187.609     135.622     -59.006
  P     -186.025     133.464     -62.408
  C     -188.056     134.947     -62.934
  O     -187.306     133.797     -63.311
  O     -185.252     132.262     -62.838
  O     -185.135     134.789     -62.558
  H     -184.291     134.554     -62.989
  H     -188.882     135.070     -63.603
  H     -187.429     135.813     -62.979
  H     -188.421     134.823     -61.936

 6  7  8  9  10  11  12  13  14  15  16  27  31  32  33  34  35 0
 6-311+G(2d,p)
 ****
 36  37 0
 6-311+G(2d,p)
 ****
 1  2  3  4  5  17  18  19  20  21  22  23  24  25 0
 3-21G
 ****
 26  28  29  30  38  39  40  41  42  43  44  45 0
 3-21G
 ****


