%nproc=1
%NoSave
%Mem=1900MB
#P OB98/GEN NMR

erre ene a

0 1
  C      346.592    -586.470     576.341
  O      347.024    -585.806     577.529
  P      346.114    -586.010     578.840
  C      344.851    -583.738     578.926
  O      344.778    -585.128     578.667
  C      344.075    -582.911     577.901
  O      342.652    -583.259     577.946
  C      344.165    -581.399     578.130
  O      344.122    -580.769     576.841
  C      342.887    -581.074     578.872
  O      342.555    -579.681     578.753
  C      341.909    -582.043     578.189
  N      340.692    -582.297     578.982
  C      339.910    -581.191     579.313
  O      340.278    -580.046     579.001
  N      338.757    -581.391     580.017
  C      338.433    -582.585     580.408
  N      337.278    -582.719     581.111
  C      339.270    -583.772     580.131
  C      340.374    -583.558     579.419
  O      346.936    -585.231     579.980
  O      345.891    -587.435     579.202
  H      341.650    -579.548     579.128
  H      347.025    -585.803     580.763
  H      338.971    -584.752     580.496
  H      341.051    -584.369     579.163
  H      341.590    -581.645     577.212
  H      343.001    -581.315     579.935
  H      345.072    -581.093     578.642
  H      344.431    -583.169     576.906
  H      336.734    -581.873     581.278
  H      345.904    -583.413     578.906
  H      336.937    -583.589     581.461
  H      344.510    -583.544     579.947
  P      345.504    -580.301     576.168
  C      345.547    -577.916     577.134
  O      346.106    -579.222     577.190
  O      344.978    -579.356     574.976
  O      346.442    -581.340     575.663
  H      345.728    -579.057     574.442
  H      345.949    -577.322     577.959
  H      344.468    -577.951     577.227
  H      345.832    -577.435     576.185
  H      347.275    -586.258     575.545
  H      345.615    -586.124     576.074
  H      346.562    -587.526     576.513

 3  4  5  6  7  8  9  10  11  12  13  21  23  27  28  29  30  32 0
 6-311+G(2d,p)
 ****
 34  35 0
 6-311+G(2d,p)
 ****
 1  2  14  15  16  17  18  19  20  22  24  25  26 0
 3-21G
 ****
 31  33  36  37  38  39  40  41  42  43  44  45  46 0
 3-21G
 ****


