%nproc=1
%NoSave
%Mem=1900MB
#P OB98/GEN NMR

erre ene a

0 1
  C      536.971     344.677     849.434
  O      536.844     343.266     849.491
  P      535.374     342.645     849.728
  C      535.703     341.024     847.696
  O      534.923     342.052     848.303
  C      534.832     340.212     846.717
  O      533.830     339.459     847.460
  C      534.118     341.049     845.651
  O      534.137     340.267     844.436
  C      532.710     341.149     846.202
  O      531.760     341.427     845.169
  C      532.551     339.765     846.840
  N      531.476     339.701     847.826
  C      530.210     339.385     847.342
  O      529.959     339.225     846.142
  N      529.217     339.299     848.284
  C      529.337     339.584     849.614
  O      528.429     339.493     850.427
  C      530.682     340.029     850.051
  C      531.663     340.081     849.142
  O      534.518     343.982     849.883
  O      535.318     341.688     850.869
  H      534.806     344.713     849.317
  H      530.857     341.204     845.497
  H      528.306     339.033     847.958
  H      530.808     340.334     851.076
  H      532.658     340.435     849.422
  H      532.367     338.998     846.083
  H      532.653     341.941     846.960
  H      534.585     342.013     845.487
  H      535.504     339.481     846.221
  H      536.100     340.342     848.461
  H      536.559     341.490     847.192
  P      534.382     341.034     843.050
  C      536.978     340.830     843.372
  O      535.855     341.655     843.087
  O      533.440     342.324     843.258
  O      534.014     340.255     841.821
  H      533.568     342.736     844.116
  H      537.881     341.391     843.110
  H      536.949     339.927     842.752
  H      536.997     340.566     844.419
  H      537.997     344.937     849.273
  H      536.636     345.103     850.357
  H      536.377     345.056     848.629

 3  4  5  6  7  8  9  10  11  12  13  24  28  29  30  31  32 0
 6-311+G(2d,p)
 ****
 33  34 0
 6-311+G(2d,p)
 ****
 1  2  14  15  16  17  18  19  20  21  22  23  25  26  27 0
 3-21G
 ****
 35  36  37  38  39  40  41  42  43  44  45 0
 3-21G
 ****


