%nproc=1
%NoSave
%Mem=1900MB
#P OB98/GEN NMR

erre ene a

0 1
  C        8.398     402.700     241.504
  O        8.720     401.941     240.351
  P        7.689     400.874     239.758
  C        9.501     398.986     239.978
  O        8.172     399.414     240.184
  C        9.932     398.124     241.177
  O        9.454     398.706     242.408
  C        9.378     396.707     241.076
  O       10.325     395.838     240.476
  C        9.079     396.365     242.522
  O       10.275     395.940     243.202
  C        8.607     397.732     243.074
  N        7.199     398.126     242.850
  C        6.664     399.195     243.563
  O        7.306     399.874     244.363
  N        5.333     399.453     243.340
  C        4.529     398.786     242.459
  O        3.305     398.861     242.447
  C        5.218     397.860     241.552
  C        6.492     397.563     241.798
  O        7.990     400.916     238.185
  O        6.249     401.134     240.061
  H       10.576     395.120     242.762
  H        7.337     401.477     237.726
  H        4.904     400.139     243.953
  H        4.650     397.415     240.750
  H        7.010     396.845     241.166
  H        8.795     397.812     244.152
  H        8.376     395.535     242.598
  H        8.435     396.705     240.514
  H       11.032     398.101     241.218
  H       10.163     399.853     239.876
  H        9.571     398.409     239.054
  P        9.972     395.116     239.091
  C        9.408     393.191     240.690
  O        9.051     393.864     239.498
  O       11.132     394.799     238.214
  O        8.954     396.141     238.393
  H        9.437     396.694     237.745
  H        8.611     392.481     240.944
  H        9.526     393.900     241.514
  H       10.338     392.634     240.538
  H        9.212     403.353     241.740
  H        8.220     402.040     242.327
  H        7.519     403.280     241.315

 3  4  5  6  7  8  9  10  11  12  13  23  28  29  30  31  32 0
 6-311+G(2d,p)
 ****
 33  34 0
 6-311+G(2d,p)
 ****
 1  2  14  15  16  17  18  19  20  21  22  24  25  26  27 0
 3-21G
 ****
 35  36  37  38  39  40  41  42  43  44  45 0
 3-21G
 ****


