%nproc=1
%NoSave
%Mem=1900MB
#P OB98/GEN NMR

erre ene a

0 1
  C       14.336      -8.318      16.375
  O       14.785      -8.195      17.709
  P       13.820      -8.583      18.926
  C       11.485      -7.840      19.697
  O       12.695      -7.449      19.058
  C       10.976      -6.724      20.606
  O       11.892      -6.495      21.701
  C       10.841      -5.376      19.916
  O        9.732      -5.337      19.038
  C       10.745      -4.444      21.117
  O        9.413      -4.434      21.651
  C       11.717      -5.116      22.110
  N       12.992      -4.422      22.196
  C       12.940      -3.095      22.636
  O       11.858      -2.550      22.849
  N       14.122      -2.419      22.814
  C       15.240      -2.972      22.464
  N       16.381      -2.278      22.719
  C       15.319      -4.311      21.843
  C       14.171      -4.981      21.761
  O       14.512      -8.930      20.202
  O       12.991      -9.839      18.376
  H       13.030     -10.556      19.038
  H        8.831      -4.101      20.939
  H       16.268      -4.699      21.506
  H       14.136      -5.979      21.340
  H       11.269      -5.157      23.109
  H       11.000      -3.410      20.863
  H       11.758      -5.156      19.356
  H       10.011      -7.040      21.025
  H       16.289      -1.373      23.162
  H       11.677      -8.739      20.289
  H       17.289      -2.730      22.791
  H       10.739      -8.085      18.934
  P        9.957      -4.628      17.617
  C       10.887      -2.327      16.878
  O       10.256      -3.080      17.894
  O        8.492      -4.623      16.971
  O       10.940      -5.316      16.727
  H        8.557      -4.767      16.009
  H       10.706      -1.266      17.065
  H       10.497      -2.583      15.889
  H       11.965      -2.510      16.904
  H       15.115      -8.014      15.707
  H       13.478      -7.696      16.229
  H       14.075      -9.337      16.179

 3  4  5  6  7  8  9  10  11  12  13  24  27  28  29  30  32 0
 6-311+G(2d,p)
 ****
 34  35 0
 6-311+G(2d,p)
 ****
 1  2  14  15  16  17  18  19  20  21  22  23  25  26 0
 3-21G
 ****
 31  33  36  37  38  39  40  41  42  43  44  45  46 0
 3-21G
 ****


