%nproc=1
%NoSave
%Mem=1900MB
#P OB98/GEN NMR

erre ene a

0 1
  C      -51.935       8.241      22.718
  O      -50.829       8.998      23.167
  H      -52.720       8.280      23.477
  H      -51.641       7.198      22.568
  H      -52.323       8.656      21.784
  P      -49.541       9.012      22.210
  C      -48.309       7.243      23.648
  O      -48.842       7.576      22.375
  C      -47.059       8.069      23.936
  O      -46.586       7.830      25.279
  C      -45.888       7.786      23.001
  O      -46.012       8.520      21.796
  C      -44.713       8.245      23.852
  O      -44.571       9.681      23.804
  C      -45.134       7.787      25.255
  N      -41.056       4.894      25.953
  C      -41.160       6.191      25.492
  N      -40.009       6.802      25.136
  N      -42.293       6.832      25.376
  C      -43.367       6.080      25.711
  C      -43.396       4.786      26.178
  C      -42.129       4.108      26.353
  O      -41.965       2.991      26.834
  N      -44.681       4.377      26.427
  C      -45.427       5.407      26.078
  N      -44.676       6.463      25.632
  O      -48.529      10.002      22.961
  O      -49.788       9.456      20.809
  H      -45.371      10.093      24.175
  H      -48.052      10.528      22.292
  H      -40.155       4.462      26.050
  H      -46.506       5.441      26.138
  H      -44.778       8.473      26.032
  H      -43.770       7.831      23.492
  H      -39.169       6.282      24.928
  H      -45.794       6.711      22.803
  H      -40.096       7.725      24.730
  H      -47.346       9.128      23.882
  H      -48.051       6.179      23.655
  H      -49.064       7.434      24.416
  P      -45.885       7.728      20.410
  C      -43.309       7.513      20.649
  O      -44.547       6.842      20.467
  O      -45.523       8.888      19.367
  O      -47.118       7.000      19.992
  H      -46.303       9.095      18.819
  H      -42.514       6.797      20.666
  H      -43.327       8.049      21.575
  H      -43.153       8.199      19.843

 6  7  8  9  10  11  12  13  14  15  26  29  33  34 0
 6-311+G(2d,p)
 ****
 36  38  39  40  41 0
 6-311+G(2d,p)
 ****
 1  2  3  4  5  16  17  18  19  20  21  22  23  24  25 0
 3-21G
 ****
 27  28  30  31  32  35  37  42  43  44  45  46  47 0
 3-21G
 ****
 48  49 0
 3-21G
 ****


