%nproc=1
%NoSave
%Mem=1900MB
#P OB98/GEN NMR

erre ene a

0 1
  C      -43.696    -305.739    -100.209
  O      -44.136    -307.020    -100.609
  H      -44.551    -305.183     -99.818
  H      -43.285    -305.200    -101.066
  H      -42.941    -305.824     -99.424
  P      -43.027    -308.026    -101.196
  C      -43.867    -307.886    -103.655
  O      -42.833    -307.578    -102.730
  C      -43.270    -308.260    -105.016
  O      -44.344    -308.591    -105.930
  C      -42.450    -307.132    -105.648
  O      -41.255    -307.676    -106.210
  C      -43.354    -306.574    -106.732
  O      -42.618    -305.963    -107.789
  C      -44.171    -307.811    -107.129
  N      -45.461    -307.445    -107.711
  C      -45.436    -306.853    -108.980
  O      -44.360    -306.650    -109.549
  N      -46.618    -306.457    -109.550
  C      -47.722    -306.578    -108.889
  N      -48.860    -306.146    -109.499
  C      -47.794    -307.149    -107.529
  C      -46.636    -307.564    -107.011
  O      -43.820    -309.410    -101.303
  O      -41.762    -308.110    -100.408
  H      -43.187    -305.957    -108.590
  H      -43.205    -310.168    -101.450
  H      -48.740    -307.216    -107.013
  H      -46.595    -307.995    -106.015
  H      -43.621    -308.423    -107.857
  H      -44.016    -305.814    -106.299
  H      -42.177    -306.353    -104.935
  H      -42.669    -309.169    -104.894
  H      -48.773    -305.747    -110.429
  H      -44.519    -307.012    -103.764
  H      -49.772    -306.164    -109.066
  H      -44.453    -308.728    -103.270
  P      -39.874    -307.111    -105.618
  C      -39.938    -304.776    -106.741
  O      -40.006    -305.511    -105.529
  O      -38.828    -307.347    -106.806
  O      -39.454    -307.773    -104.347
  H      -38.303    -308.151    -106.641
  H      -40.040    -303.732    -106.531
  H      -40.728    -305.088    -107.392
  H      -38.995    -304.954    -107.214

 6  7  8  9  10  11  12  13  14  15  16  26  30  31  32  33  35 0
 6-311+G(2d,p)
 ****
 37  38 0
 6-311+G(2d,p)
 ****
 1  2  3  4  5  17  18  19  20  21  22  23  24  25 0
 3-21G
 ****
 27  28  29  34  36  39  40  41  42  43  44  45  46 0
 3-21G
 ****


