%nproc=1
%NoSave
%Mem=1900MB
#P OB98/GEN NMR

erre ene a

0 1
  C      406.481     -89.018     -70.380
  O      406.120     -89.867     -71.448
  P      405.213     -89.396     -72.678
  C      403.200     -87.759     -72.863
  O      403.862     -88.753     -72.085
  C      401.679     -87.755     -72.661
  O      401.118     -88.969     -73.206
  C      401.345     -87.758     -71.162
  O      401.331     -86.547     -70.435
  C      400.077     -88.598     -71.045
  O      398.896     -87.793     -70.968
  C      400.074     -89.427     -72.328
  N      397.815     -93.809     -71.127
  C      397.247     -92.619     -71.537
  N      395.899     -92.540     -71.430
  N      397.934     -91.599     -71.988
  C      399.277     -91.795     -71.944
  C      399.956     -92.931     -71.572
  C      399.181     -94.060     -71.115
  O      399.653     -95.103     -70.664
  N      401.314     -92.739     -71.582
  C      401.456     -91.476     -71.930
  N      400.250     -90.850     -72.119
  O      405.112     -90.332     -73.838
  O      406.017     -88.089     -73.179
  H      399.026     -87.142     -70.247
  H      405.915     -88.037     -74.149
  H      397.238     -94.528     -70.713
  H      402.406     -90.962     -72.019
  H      399.128     -89.297     -72.874
  H      400.099     -89.199     -70.127
  H      395.355     -93.246     -70.955
  H      402.122     -88.359     -70.673
  H      395.467     -91.632     -71.558
  H      401.211     -86.933     -73.215
  H      403.450     -87.941     -73.911
  H      403.599     -86.771     -72.606
  P      401.948     -86.313     -68.978
  C      401.724     -87.426     -66.685
  O      401.090     -87.154     -67.923
  O      401.559     -84.798     -68.624
  O      403.426     -86.504     -68.882
  H      402.167     -84.450     -67.948
  H      401.195     -88.239     -66.181
  H      401.691     -86.532     -66.051
  H      402.767     -87.724     -66.838
  H      407.087     -89.559     -69.684
  H      405.598     -88.669     -69.888
  H      407.032     -88.183     -70.759

 3  4  5  6  7  8  9  10  11  12  23  26  30  31 0
 6-311+G(2d,p)
 ****
 33  35  36  37  38 0
 6-311+G(2d,p)
 ****
 1  2  13  14  15  16  17  18  19  20  21  22  24  25 0
 3-21G
 ****
 27  28  29  32  34  39  40  41  42  43  44  45  46  47  48  49 0
 3-21G
 ****


