%nproc=1
%NoSave
%Mem=1900MB
#P OB98/GEN NMR

erre ene a

0 1
  C      -88.986      19.150     -69.561
  O      -88.362      18.542     -68.452
  H      -88.656      18.645     -70.471
  H      -88.696      20.202     -69.622
  H      -90.074      19.067     -69.485
  P      -88.821      19.021     -66.991
  C      -90.786      17.390     -66.525
  O      -90.392      18.707     -66.877
  C      -92.305      17.245     -66.618
  O      -92.909      17.929     -65.489
  C      -92.902      17.834     -67.898
  O      -93.967      16.987     -68.338
  C      -93.469      19.168     -67.451
  O      -94.530      19.624     -68.288
  C      -93.878      18.862     -66.004
  N      -93.944      20.077     -65.198
  C      -95.101      20.850     -65.320
  O      -96.000      20.502     -66.087
  N      -95.191      22.025     -64.620
  C      -94.177      22.438     -63.925
  N      -94.315      23.626     -63.278
  C      -92.909      21.689     -63.822
  C      -92.866      20.525     -64.469
  O      -88.774      20.616     -67.091
  O      -88.002      18.497     -65.859
  H      -94.254      19.513     -69.224
  H      -88.541      21.018     -66.233
  H      -92.083      22.086     -63.251
  H      -91.975      19.909     -64.457
  H      -94.859      18.369     -65.977
  H      -92.677      19.927     -67.468
  H      -92.170      17.945     -68.703
  H      -92.559      16.183     -66.520
  H      -95.193      24.119     -63.388
  H      -90.472      17.187     -65.496
  H      -93.578      24.064     -62.747
  H      -90.294      16.673     -67.191
  P      -94.155      16.828     -69.921
  C      -92.605      14.751     -70.095
  O      -92.859      16.087     -70.507
  O      -94.014      18.326     -70.463
  O      -95.462      16.221     -70.312
  H      -94.883      18.659     -70.754
  H      -91.713      14.396     -70.567
  H      -93.429      14.129     -70.375
  H      -92.482      14.723     -69.032

 6  7  8  9  10  11  12  13  14  15  16  26  30  31  32  33  35 0
 6-311+G(2d,p)
 ****
 37  38 0
 6-311+G(2d,p)
 ****
 1  2  3  4  5  17  18  19  20  21  22  23  24  25 0
 3-21G
 ****
 27  28  29  34  36  39  40  41  42  43  44  45  46 0
 3-21G
 ****


