%nproc=1
%NoSave
%Mem=1900MB
#P OB98/GEN NMR

erre ene a

0 1
  C      -49.450      23.159      41.598
  O      -50.692      22.449      41.623
  P      -51.680      22.682      40.382
  C      -52.766      24.956      41.005
  O      -51.852      24.261      40.169
  C      -52.894      26.410      40.550
  O      -51.757      27.200      40.959
  C      -52.967      26.565      39.037
  O      -54.243      26.190      38.546
  C      -52.640      28.047      38.885
  O      -53.797      28.850      39.171
  C      -51.583      28.255      39.982
  N      -48.123      30.725      37.137
  C      -49.406      31.012      37.448
  N      -50.262      30.300      38.211
  C      -49.669      29.191      38.683
  C      -48.370      28.771      38.455
  C      -47.577      29.591      37.635
  N      -46.275      29.292      37.306
  N      -48.122      27.580      39.105
  C      -49.260      27.275      39.696
  N      -50.221      28.225      39.480
  O      -53.101      22.216      40.949
  O      -51.296      21.915      39.159
  H      -54.520      28.535      38.591
  H      -53.364      21.372      40.539
  H      -49.798      31.933      37.028
  H      -49.435      26.384      40.287
  H      -51.711      29.209      40.506
  H      -52.299      28.310      37.880
  H      -52.190      25.958      38.556
  H      -53.796      26.833      41.011
  H      -52.430      24.923      42.044
  H      -45.802      29.893      36.649
  H      -45.887      28.407      37.600
  H      -53.734      24.445      40.971
  P      -54.424      24.690      38.010
  C      -54.238      25.602      35.617
  O      -53.700      24.710      36.575
  O      -55.973      24.672      37.620
  O      -53.972      23.625      38.950
  H      -56.230      25.469      37.123
  H      -53.636      25.540      34.707
  H      -54.207      26.627      35.994
  H      -55.267      25.320      35.379
  H      -48.885      22.920      42.475
  H      -49.641      24.211      41.573
  H      -48.895      22.876      40.728

 3  4  5  6  7  8  9  10  11  12  22  25  29  30  31  32 0
 6-311+G(2d,p)
 ****
 33  36  37 0
 6-311+G(2d,p)
 ****
 1  2  13  14  15  16  17  18  19  20  21  23  24  26 0
 3-21G
 ****
 27  28  34  35  38  39  40  41  42  43  44  45  46  47  48 0
 3-21G
 ****


