%nproc=1
%NoSave
%Mem=1900MB
#P OB98/GEN NMR

erre ene a

0 1
  C      288.684     584.660    -762.680
  O      288.298     583.663    -763.635
  P      289.009     583.611    -765.063
  C      287.303     585.385    -765.858
  O      288.659     584.962    -765.868
  C      287.115     586.537    -766.861
  O      287.710     586.226    -768.145
  C      285.653     586.817    -767.173
  O      284.872     587.377    -766.129
  C      285.736     587.599    -768.474
  O      286.005     588.984    -768.252
  C      286.939     586.920    -769.163
  N      286.546     586.003    -770.230
  C      285.781     586.548    -771.249
  O      285.397     587.718    -771.268
  N      285.416     585.688    -772.261
  C      285.715     584.352    -772.317
  O      285.347     583.623    -773.229
  C      286.521     583.827    -771.190
  C      286.886     584.659    -770.223
  O      288.841     582.354    -765.834
  O      290.564     583.836    -764.684
  H      285.931     589.439    -769.119
  H      291.092     583.241    -765.247
  H      284.863     586.064    -773.020
  H      286.762     582.768    -771.205
  H      287.474     584.294    -769.387
  H      287.614     587.677    -769.597
  H      284.801     587.541    -769.044
  H      285.164     585.854    -767.419
  H      287.611     587.428    -766.471
  H      287.024     585.712    -764.855
  H      286.654     584.538    -766.111
  P      283.647     586.618    -765.447
  C      282.050     587.506    -767.306
  O      282.494     586.398    -766.543
  O      283.212     587.090    -764.094
  O      284.236     585.128    -765.283
  H      283.861     584.730    -764.486
  H      281.276     587.179    -767.980
  H      282.875     587.926    -767.883
  H      281.644     588.283    -766.636
  H      288.105     584.542    -761.788
  H      288.512     585.633    -763.091
  H      289.723     584.549    -762.449

 3  4  5  6  7  8  9  10  11  12  13  23  28  29  30  31  32 0
 6-311+G(2d,p)
 ****
 33  34 0
 6-311+G(2d,p)
 ****
 1  2  14  15  16  17  18  19  20  21  22  24  25  26  27 0
 3-21G
 ****
 35  36  37  38  39  40  41  42  43  44  45 0
 3-21G
 ****


