%nproc=1
%NoSave
%Mem=1900MB
#P OB98/GEN NMR

erre ene a

0 1
  C     -665.897     213.854    -889.490
  O     -667.322     213.957    -889.460
  P     -667.991     215.159    -890.290
  C     -668.759     213.632    -892.250
  O     -668.014     214.759    -891.850
  C     -668.593     213.323    -893.760
  O     -669.140     214.399    -894.560
  C     -667.114     213.188    -894.190
  O     -667.058     212.283    -895.280
  C     -666.783     214.583    -894.680
  O     -665.605     214.573    -895.510
  C     -668.071     214.946    -895.380
  N     -666.774     218.954    -898.160
  C     -666.390     217.621    -898.270
  N     -665.544     217.317    -899.290
  N     -666.756     216.684    -897.470
  C     -667.627     217.128    -896.520
  C     -668.083     218.420    -896.300
  C     -667.609     219.447    -897.210
  O     -667.916     220.643    -897.160
  N     -668.946     218.495    -895.220
  C     -668.987     217.239    -894.760
  N     -668.233     216.378    -895.550
  O     -666.881     216.304    -890.210
  O     -669.302     215.625    -889.750
  H     -665.808     213.995    -896.280
  H     -667.203     217.026    -889.620
  H     -666.412     219.628    -898.840
  H     -669.534     216.921    -893.910
  H     -668.155     214.508    -896.370
  H     -666.579     215.248    -893.830
  H     -665.240     217.975    -900.000
  H     -666.439     212.836    -893.370
  H     -665.273     216.341    -899.410
  H     -669.136     212.399    -893.990
  H     -669.838     213.799    -892.030
  H     -668.476     212.767    -891.620
  P     -666.408     210.839    -894.990
  C     -668.357     209.371    -895.870
  O     -667.629     209.817    -894.740
  O     -665.722     210.977    -893.580
  O     -665.403     210.381    -896.050
  H     -665.009     210.359    -893.450
  H     -668.046     208.339    -896.110
  H     -668.209     209.997    -896.750
  H     -669.429     209.373    -895.620
  H     -665.587     213.017    -888.900
  H     -665.466     214.749    -889.092
  H     -665.570     213.719    -890.500

 3  4  5  6  7  8  9  10  11  12  23  26  30  31 0
 6-311+G(2d,p)
 ****
 33  35  36  37  38 0
 6-311+G(2d,p)
 ****
 1  2  13  14  15  16  17  18  19  20  21  22  24  25 0
 3-21G
 ****
 27  28  29  32  34  39  40  41  42  43  44  45  46  47  48  49 0
 3-21G
 ****


