%nproc=1
%NoSave
%Mem=1900MB
#P OB98/GEN NMR

erre ene a

0 1
  C      -30.748      33.092    -129.422
  O      -31.923      33.610    -130.020
  P      -32.178      35.189    -129.962
  C      -30.498      35.847    -131.834
  O      -30.837      35.918    -130.459
  C      -30.319      37.253    -132.412
  O      -29.621      37.164    -133.690
  C      -31.639      37.997    -132.664
  O      -31.400      39.392    -132.426
  C      -31.868      37.766    -134.145
  O      -32.767      38.699    -134.725
  C      -30.428      37.862    -134.659
  N      -30.264      37.306    -136.001
  C      -30.095      38.205    -137.049
  O      -30.078      39.427    -136.912
  N      -30.006      37.653    -138.298
  C      -30.156      36.332    -138.607
  O      -30.184      35.917    -139.759
  C      -30.333      35.429    -137.459
  C      -30.376      35.949    -136.229
  O      -32.218      35.496    -128.393
  O      -33.419      35.646    -130.652
  H      -32.360      39.581    -134.653
  H      -33.140      35.578    -128.084
  H      -29.872      38.289    -139.069
  H      -30.434      34.372    -137.666
  H      -30.526      35.307    -135.367
  H      -30.096      38.909    -134.656
  H      -32.280      36.762    -134.297
  H      -32.468      37.641    -132.046
  H      -29.679      37.830    -131.733
  H      -31.297      35.337    -132.375
  H      -29.582      35.260    -131.957
  P      -32.642      40.298    -131.961
  C      -32.850      39.434    -129.503
  O      -33.395      39.488    -130.804
  O      -33.611      40.149    -133.229
  O      -32.272      41.712    -131.653
  H      -33.657      39.237    -133.560
  H      -32.336      40.363    -129.243
  H      -32.144      38.602    -129.441
  H      -33.658      39.266    -128.787
  H      -30.724      32.029    -129.545
  H      -30.743      33.331    -128.379
  H      -29.889      33.524    -129.891

 3  4  5  6  7  8  9  10  11  12  13  23  28  29  30  31  32 0
 6-311+G(2d,p)
 ****
 33  34 0
 6-311+G(2d,p)
 ****
 1  2  14  15  16  17  18  19  20  21  22  24  25  26 0
 3-21G
 ****
 27  35  36  37  38  39  40  41  42  43  44  45 0
 3-21G
 ****


