%nproc=1
%NoSave
%Mem=1900MB
#P OB98/GEN NMR

erre ene a

0 1
  C      -20.839    -391.687    -405.621
  O      -21.706    -392.767    -405.347
  H      -20.525    -391.242    -404.674
  H      -21.362    -390.926    -406.206
  H      -19.950    -392.026    -406.159
  P      -22.170    -393.710    -406.556
  C      -21.554    -395.918    -405.366
  O      -21.297    -395.050    -406.460
  C      -21.274    -397.374    -405.751
  O      -22.254    -397.787    -406.751
  C      -19.876    -397.611    -406.360
  O      -19.492    -398.949    -406.017
  C      -20.189    -397.488    -407.842
  O      -19.132    -397.926    -408.655
  C      -21.506    -398.274    -407.885
  N      -22.281    -398.129    -409.112
  C      -22.649    -399.289    -409.785
  O      -22.374    -400.429    -409.416
  N      -23.370    -399.105    -410.938
  C      -23.755    -397.907    -411.459
  O      -24.426    -397.804    -412.480
  C      -23.331    -396.716    -410.710
  C      -22.628    -396.879    -409.586
  O      -22.200    -393.071    -407.904
  O      -23.626    -394.207    -406.109
  H      -24.307    -393.698    -406.589
  H      -19.436    -397.947    -409.590
  H      -23.649    -399.935    -411.435
  H      -23.610    -395.748    -411.102
  H      -22.308    -396.019    -409.005
  H      -21.311    -399.337    -407.711
  H      -20.351    -396.440    -408.101
  H      -19.126    -396.907    -405.996
  H      -21.433    -398.009    -404.868
  H      -22.606    -395.806    -405.083
  H      -20.924    -395.624    -404.519
  P      -18.166    -399.299    -405.180
  C      -19.686    -399.868    -403.163
  O      -18.521    -399.187    -403.616
  O      -16.966    -398.502    -405.581
  O      -17.921    -400.864    -405.409
  H      -16.974    -401.065    -405.304
  H      -19.804    -399.712    -402.111
  H      -19.586    -400.915    -403.359
  H      -20.544    -399.489    -403.678

 6  7  8  9  10  11  12  13  14  15  16  27  31  32  33  34  35 0
 6-311+G(2d,p)
 ****
 36  37 0
 6-311+G(2d,p)
 ****
 1  2  3  4  5  17  18  19  20  21  22  23  24  25 0
 3-21G
 ****
 26  28  29  30  38  39  40  41  42  43  44  45 0
 3-21G
 ****


