%nproc=1
%NoSave
%Mem=1900MB
#P OB98/GEN NMR

erre ene a

0 1
  C     -162.784    -898.790      34.935
  O     -162.764    -898.090      36.163
  P     -162.800    -898.880      37.559
  C     -162.867    -896.660      38.853
  O     -163.509    -897.900      38.604
  C     -163.694    -895.800      39.808
  O     -164.933    -895.380      39.177
  C     -164.132    -896.530      41.069
  O     -163.126    -896.930      41.993
  C     -165.220    -895.620      41.586
  O     -164.667    -894.500      42.297
  C     -165.888    -895.120      40.261
  N     -167.177    -895.750      40.027
  C     -168.232    -895.320      40.809
  O     -168.127    -894.440      41.666
  N     -169.424    -895.940      40.595
  C     -169.659    -896.990      39.741
  O     -170.756    -897.540      39.648
  C     -168.503    -897.430      38.955
  C     -167.328    -896.800      39.126
  O     -161.494    -899.440      37.995
  O     -163.929    -900.000      37.307
  H     -165.396    -893.930      42.588
  H     -164.810    -899.640      37.096
  H     -170.205    -895.640      41.177
  H     -168.657    -898.240      38.255
  H     -166.452    -897.110      38.564
  H     -166.030    -894.020      40.298
  H     -165.901    -896.120      42.277
  H     -164.628    -897.470      40.773
  H     -163.127    -894.890      40.036
  H     -162.760    -896.110      37.900
  H     -161.854    -896.830      39.253
  P     -163.057    -898.370      42.652
  C     -162.101    -897.470      44.893
  O     -163.122    -898.200      44.237
  O     -162.024    -899.320      42.106
  O     -164.508    -898.960      42.320
  H     -164.457    -899.930      42.213
  H     -162.287    -897.490      45.967
  H     -162.089    -896.450      44.562
  H     -161.128    -897.940      44.700
  H     -162.754    -898.091      34.125
  H     -163.680    -899.372      34.871
  H     -161.933    -899.437      34.879

 3  4  5  6  7  8  9  10  11  12  13  23  28  29  30  31  32 0
 6-311+G(2d,p)
 ****
 33  34 0
 6-311+G(2d,p)
 ****
 1  2  14  15  16  17  18  19  20  21  22  24  25  26  27 0
 3-21G
 ****
 35  36  37  38  39  40  41  42  43  44  45 0
 3-21G
 ****


