%nproc=1
%NoSave
%Mem=1900MB
#P OB98/GEN NMR

erre ene a

0 1
  C      236.128      27.615    -110.301
  O      237.431      27.599    -109.752
  H      235.552      26.795    -109.863
  H      236.179      27.469    -111.385
  H      235.629      28.561    -110.075
  P      238.392      28.822    -110.132
  C      239.399      27.587    -112.218
  O      238.701      28.714    -111.706
  C      239.033      27.369    -113.686
  O      237.618      27.140    -113.843
  C      239.305      28.570    -114.573
  O      240.680      28.791    -114.791
  C      238.537      28.171    -115.824
  O      239.281      27.227    -116.607
  C      237.282      27.503    -115.209
  N      236.107      28.361    -115.266
  C      235.699      28.750    -116.550
  O      236.314      28.358    -117.540
  N      234.623      29.594    -116.669
  C      233.994      29.995    -115.609
  N      232.943      30.837    -115.794
  C      234.376      29.591    -114.241
  C      235.432      28.787    -114.145
  O      239.783      28.393    -109.468
  O      237.899      30.172    -109.721
  H      238.640      26.814    -117.218
  H      240.083      27.508    -109.732
  H      233.816      29.943    -113.386
  H      235.779      28.443    -113.179
  H      237.046      26.569    -115.735
  H      238.329      29.027    -116.469
  H      238.824      29.468    -114.156
  H      239.565      26.477    -114.041
  H      232.725      31.110    -116.746
  H      239.179      26.690    -111.629
  H      232.402      31.239    -115.043
  H      240.471      27.789    -112.124
  P      241.266      30.281    -114.878
  C      240.879      30.268    -117.423
  O      240.621      30.941    -116.193
  O      242.750      30.385    -114.796
  O      240.492      31.049    -113.703
  H      239.523      31.059    -113.792
  H      240.403      30.794    -118.224
  H      240.493      29.271    -117.372
  H      241.934      30.233    -117.596

 6  7  8  9  10  11  12  13  14  15  16  26  30  31  32  33  35 0
 6-311+G(2d,p)
 ****
 37  38 0
 6-311+G(2d,p)
 ****
 1  2  3  4  5  17  18  19  20  21  22  23  24  25 0
 3-21G
 ****
 27  28  29  34  36  39  40  41  42  43  44  45  46 0
 3-21G
 ****


