%nproc=1
%NoSave
%Mem=1900MB
#P OB98/GEN NMR

erre ene a

0 1
  C     -384.070     250.842     190.395
  O     -383.062     249.863     190.245
  H     -384.833     250.677     189.628
  H     -383.650     251.840     190.258
  H     -384.542     250.768     191.377
  P     -381.905     249.774     191.349
  C     -380.168     248.018     192.089
  O     -381.158     248.372     191.130
  C     -380.572     246.730     192.801
  O     -381.773     246.950     193.574
  C     -380.901     245.581     191.854
  O     -379.734     245.009     191.302
  C     -381.692     244.669     192.778
  O     -380.819     243.873     193.588
  C     -382.469     245.685     193.649
  N     -383.860     245.821     193.222
  C     -384.783     245.009     193.869
  O     -384.487     244.215     194.757
  N     -386.074     245.092     193.409
  C     -386.480     245.784     192.305
  O     -387.581     245.634     191.787
  C     -385.477     246.674     191.704
  C     -384.228     246.643     192.173
  O     -382.324     250.056     192.753
  O     -380.819     250.837     190.840
  H     -380.898     251.654     191.369
  H     -381.396     243.423     194.240
  H     -386.742     244.472     193.844
  H     -385.781     247.296     190.869
  H     -383.459     247.266     191.724
  H     -382.454     245.375     194.701
  H     -382.337     243.994     192.217
  H     -381.564     245.939     191.057
  H     -379.767     246.450     193.491
  H     -380.083     248.829     192.822
  H     -379.206     247.898     191.579
  P     -379.840     243.788     190.272
  C     -378.399     242.681     188.456
  O     -378.481     243.722     189.426
  O     -381.091     243.752     189.459
  O     -379.739     242.486     191.204
  H     -380.472     241.881     190.983
  H     -377.455     242.734     187.955
  H     -379.188     242.796     187.742
  H     -378.493     241.732     188.942

 6  7  8  9  10  11  12  13  14  15  16  27  31  32  33  34  35 0
 6-311+G(2d,p)
 ****
 36  37 0
 6-311+G(2d,p)
 ****
 1  2  3  4  5  17  18  19  20  21  22  23  24  25 0
 3-21G
 ****
 26  28  29  30  38  39  40  41  42  43  44  45 0
 3-21G
 ****


