%nproc=1
%NoSave
%Mem=1900MB
#P OB98/GEN NMR

erre ene a

0 1
  C      405.583     124.887     141.321
  O      404.448     125.627     141.709
  H      406.446     125.557     141.296
  H      405.429     124.477     140.319
  H      405.790     124.075     142.022
  P      403.170     124.844     142.263
  C      403.419     125.257     144.798
  O      403.511     124.312     143.741
  C      401.999     125.345     145.357
  O      401.127     125.946     144.375
  C      401.412     123.969     145.686
  O      401.721     123.495     146.985
  C      399.914     124.223     145.537
  O      399.339     124.694     146.768
  C      399.844     125.311     144.461
  N      396.095     124.603     141.057
  C      396.006     125.031     142.368
  N      394.758     125.261     142.831
  N      397.046     125.198     143.143
  C      398.214     124.833     142.571
  C      398.425     124.376     141.290
  C      397.277     124.266     140.413
  O      397.306     123.908     139.241
  N      399.746     124.065     141.074
  C      400.313     124.250     142.250
  N      399.441     124.793     143.166
  O      403.162     123.489     141.403
  O      401.862     125.562     142.126
  H      399.570     125.637     146.867
  H      402.245     123.185     141.280
  H      395.264     124.523     140.499
  H      401.354     124.056     142.479
  H      399.120     126.092     144.728
  H      399.388     123.302     145.277
  H      393.921     125.068     142.306
  H      401.709     123.232     144.935
  H      394.634     125.392     143.837
  H      401.995     126.003     146.234
  H      403.717     126.220     144.383
  H      404.128     125.008     145.593
  P      401.775     121.927     147.295
  C      404.273     121.160     147.028
  O      402.984     121.293     146.470
  O      400.480     121.366     146.544
  O      401.790     121.559     148.741
  H      399.744     121.244     147.172
  H      404.928     120.714     146.309
  H      404.223     120.540     147.898
  H      404.646     122.126     147.299

 6  7  8  9  10  11  12  13  14  15  26  29  33  34 0
 6-311+G(2d,p)
 ****
 36  38  39  40  41 0
 6-311+G(2d,p)
 ****
 1  2  3  4  5  16  17  18  19  20  21  22  23  24  25 0
 3-21G
 ****
 27  28  30  31  32  35  37  42  43  44  45  46  47 0
 3-21G
 ****
 48  49 0
 3-21G
 ****


