%nproc=1
%NoSave
%Mem=1900MB
#P OB98/GEN NMR

erre ene a

0 1
  C      434.828     -41.958      58.663
  O      434.927     -43.310      59.055
  H      435.833     -41.539      58.585
  H      434.272     -41.397      59.419
  H      434.330     -41.868      57.693
  P      433.603     -44.207      58.934
  C      432.681     -43.569      61.270
  O      432.485     -43.522      59.866
  C      431.408     -43.134      61.998
  O      431.432     -43.684      63.343
  C      431.250     -41.615      62.118
  O      429.868     -41.279      61.950
  C      431.675     -41.326      63.547
  O      431.096     -40.129      64.061
  C      431.219     -42.594      64.260
  N      430.869     -42.489      69.285
  C      429.898     -42.311      68.319
  N      428.646     -42.058      68.756
  N      430.134     -42.372      67.034
  C      431.425     -42.668      66.743
  C      432.480     -42.861      67.606
  C      432.208     -42.761      69.025
  O      433.029     -42.887      69.929
  N      433.642     -43.108      66.923
  C      433.292     -43.062      65.650
  N      431.958     -42.806      65.491
  O      433.991     -45.539      59.731
  O      433.163     -44.513      57.542
  H      430.133     -40.165      63.879
  H      434.005     -46.299      59.119
  H      430.634     -42.414      70.260
  H      433.961     -43.197      64.813
  H      430.153     -42.567      64.521
  H      432.767     -41.221      63.592
  H      428.384     -42.043      69.728
  H      431.848     -41.063      61.391
  H      427.909     -41.959      68.065
  H      430.545     -43.581      61.489
  H      433.500     -42.893      61.536
  H      432.950     -44.588      61.566
  P      429.459     -40.551      60.577
  C      429.338     -38.110      61.434
  O      430.024     -39.048      60.617
  O      427.875     -40.365      60.723
  O      429.806     -41.333      59.354
  H      427.412     -40.982      60.129
  H      429.820     -37.157      61.365
  H      429.353     -38.444      62.450
  H      428.325     -38.022      61.102

 6  7  8  9  10  11  12  13  14  15  26  29  33  34 0
 6-311+G(2d,p)
 ****
 36  38  39  40  41 0
 6-311+G(2d,p)
 ****
 1  2  3  4  5  16  17  18  19  20  21  22  23  24  25 0
 3-21G
 ****
 27  28  30  31  32  35  37  42  43  44  45  46  47 0
 3-21G
 ****
 48  49 0
 3-21G
 ****


