%nproc=1
%NoSave
%Mem=1900MB
#P OB98/GEN NMR

erre ene a

0 1
  C     -106.593     -18.444    -158.738
  O     -105.664     -19.294    -159.390
  P     -105.055     -20.519    -158.549
  C     -104.650     -23.042    -159.039
  O     -105.294     -21.837    -159.432
  C     -104.812     -24.104    -160.120
  O     -106.208     -24.383    -160.357
  C     -104.249     -23.704    -161.478
  O     -102.846     -23.890    -161.556
  C     -104.967     -24.683    -162.392
  O     -104.314     -25.967    -162.347
  C     -106.355     -24.768    -161.746
  N     -110.410     -24.634    -164.769
  C     -109.793     -25.712    -164.164
  N     -110.294     -26.931    -164.459
  N     -108.779     -25.606    -163.346
  C     -108.381     -24.324    -163.155
  C     -108.912     -23.175    -163.694
  C     -110.026     -23.309    -164.607
  O     -110.580     -22.399    -165.214
  N     -108.245     -22.062    -163.257
  C     -107.311     -22.532    -162.454
  N     -107.324     -23.901    -162.393
  O     -106.094     -20.691    -157.344
  O     -103.661     -20.309    -158.064
  H     -103.383     -25.815    -162.606
  H     -105.690     -21.217    -156.628
  H     -111.184     -24.768    -165.397
  H     -106.598     -21.925    -161.911
  H     -106.752     -25.789    -161.762
  H     -104.970     -24.364    -163.438
  H     -111.033     -27.086    -165.129
  H     -104.540     -22.680    -161.744
  H     -109.823     -27.745    -164.080
  H     -104.339     -25.027    -159.764
  H     -105.091     -23.398    -158.105
  H     -103.588     -22.840    -158.862
  P     -102.022     -22.815    -162.420
  C      -99.629     -23.209    -163.352
  O     -100.480     -23.204    -162.223
  O     -102.190     -21.468    -161.573
  O     -102.490     -22.663    -163.828
  H     -102.108     -20.689    -162.154
  H      -98.590     -23.230    -163.008
  H      -99.777     -22.313    -163.960
  H      -99.817     -24.101    -163.955
  H     -106.912     -17.679    -159.414
  H     -106.128     -17.995    -157.885
  H     -107.440     -19.017    -158.423

 3  4  5  6  7  8  9  10  11  12  23  26  30  31 0
 6-311+G(2d,p)
 ****
 33  35  36  37  38 0
 6-311+G(2d,p)
 ****
 1  2  13  14  15  16  17  18  19  20  21  22  24  25 0
 3-21G
 ****
 27  28  29  32  34  39  40  41  42  43  44  45  46  47  48  49 0
 3-21G
 ****


