%nproc=1
%NoSave
%Mem=1900MB
#P OB98/GEN NMR

erre ene a

0 1
  C      116.787     467.157     -62.825
  O      117.828     467.434     -63.766
  P      118.897     466.283     -64.097
  C      120.375     466.483     -61.988
  O      119.450     465.677     -62.719
  C      120.843     465.758     -60.705
  O      121.683     464.611     -61.042
  C      121.656     466.673     -59.785
  O      121.432     466.318     -58.399
  C      123.085     466.302     -60.125
  O      123.989     466.669     -59.076
  C      122.947     464.793     -60.361
  N      127.972     463.773     -60.450
  C      127.166     464.264     -59.481
  N      125.833     464.475     -59.517
  C      125.341     464.134     -60.715
  C      126.030     463.630     -61.813
  C      127.411     463.451     -61.643
  N      128.232     462.993     -62.658
  N      125.169     463.397     -62.866
  C      124.004     463.807     -62.446
  N      124.031     464.247     -61.146
  O      119.955     466.641     -65.089
  O      117.974     465.091     -64.652
  H      124.903     466.519     -59.418
  H      118.418     464.675     -65.429
  H      127.667     464.502     -58.548
  H      123.089     463.841     -63.046
  H      122.892     464.238     -59.420
  H      123.395     466.834     -61.043
  H      121.457     467.747     -59.910
  H      119.962     465.358     -60.193
  H      119.912     467.435     -61.735
  H      129.228     463.007     -62.488
  H      127.851     462.870     -63.586
  H      121.219     466.726     -62.635
  P      120.552     467.370     -57.558
  C      122.596     468.928     -57.017
  O      121.327     468.767     -57.629
  O      120.212     466.887     -56.180
  O      119.261     467.563     -58.495
  H      119.476     467.770     -59.427
  H      123.000     469.910     -57.315
  H      123.276     468.143     -57.366
  H      122.489     468.880     -55.933
  H      116.164     468.020     -62.718
  H      117.219     466.909     -61.878
  H      116.199     466.335     -63.175

 3  4  5  6  7  8  9  10  11  12  22  25  29  30  31  32 0
 6-311+G(2d,p)
 ****
 33  36  37 0
 6-311+G(2d,p)
 ****
 1  2  13  14  15  16  17  18  19  20  21  23  24  26 0
 3-21G
 ****
 27  28  34  35  38  39  40  41  42  43  44  45  46  47  48 0
 3-21G
 ****


