%nproc=1
%NoSave
%Mem=1900MB
#P OB98/GEN NMR

erre ene a

0 1
  C      315.011     329.920     -80.802
  O      314.704     330.962     -81.733
  P      314.393     330.646     -83.288
  C      316.923     330.765     -83.727
  O      315.711     330.085     -84.021
  C      317.538     331.472     -84.937
  O      318.002     330.505     -85.921
  C      316.589     332.424     -85.685
  O      317.415     333.466     -86.221
  C      316.052     331.546     -86.799
  O      315.477     332.276     -87.874
  C      317.302     330.759     -87.160
  N      315.725     328.669     -91.572
  C      316.113     329.920     -91.256
  N      316.553     330.392     -90.072
  C      316.621     329.415     -89.162
  C      316.278     328.082     -89.334
  C      315.798     327.711     -90.607
  N      315.359     326.442     -90.914
  N      316.455     327.368     -88.160
  C      316.885     328.264     -87.293
  N      317.010     329.511     -87.845
  O      313.725     331.768     -84.008
  O      313.426     329.372     -83.236
  H      315.164     331.626     -88.541
  H      312.680     329.514     -83.851
  H      316.047     330.647     -92.069
  H      317.105     328.069     -86.248
  H      317.966     331.350     -87.803
  H      315.263     330.886     -86.385
  H      315.798     332.837     -85.041
  H      318.426     332.018     -84.595
  H      317.653     330.042     -83.324
  H      314.948     326.301     -91.825
  H      315.286     325.756     -90.182
  H      316.727     331.502     -82.934
  P      317.553     334.896     -85.509
  C      315.407     335.879     -86.507
  O      316.064     335.460     -85.311
  O      318.508     335.838     -86.170
  O      318.009     334.554     -84.006
  H      318.406     335.340     -83.595
  H      315.804     336.854     -86.831
  H      314.324     335.970     -86.306
  H      315.546     335.147     -87.299
  H      315.182     330.345     -79.835
  H      315.890     329.401     -81.124
  H      314.191     329.235     -80.751

 3  4  5  6  7  8  9  10  11  12  22  25  29  30  31  32 0
 6-311+G(2d,p)
 ****
 33  36  37 0
 6-311+G(2d,p)
 ****
 1  2  13  14  15  16  17  18  19  20  21  23  24  26 0
 3-21G
 ****
 27  28  34  35  38  39  40  41  42  43  44  45  46  47  48 0
 3-21G
 ****


