%nproc=1
%NoSave
%Mem=1900MB
#P OB98/GEN NMR

erre ene a

0 1
  C      -43.847    -285.850     -20.086
  O      -43.574    -284.492     -19.815
  P      -42.108    -283.863     -19.877
  C      -42.655    -282.220     -21.814
  O      -41.860    -283.312     -21.366
  C      -41.818    -281.075     -22.404
  O      -40.969    -281.591     -23.452
  C      -42.735    -280.038     -23.060
  O      -43.349    -279.033     -22.278
  C      -41.953    -279.526     -24.264
  O      -41.292    -278.286     -24.001
  C      -40.931    -280.634     -24.523
  N      -40.742    -280.353     -29.582
  C      -40.181    -279.512     -28.643
  N      -39.669    -278.354     -29.118
  N      -40.146    -279.775     -27.362
  C      -40.784    -280.924     -27.030
  C      -41.364    -281.843     -27.871
  C      -41.358    -281.560     -29.286
  O      -41.918    -282.240     -30.144
  N      -41.979    -282.851     -27.179
  C      -41.806    -282.525     -25.912
  N      -41.123    -281.342     -25.774
  O      -41.016    -284.633     -19.207
  O      -42.314    -282.497     -19.042
  H      -40.818    -278.372     -23.153
  H      -41.482    -282.318     -18.562
  H      -40.808    -280.059     -30.549
  H      -42.187    -283.087     -25.067
  H      -39.913    -280.226     -24.540
  H      -42.624    -279.342     -25.111
  H      -39.807    -278.056     -30.072
  H      -43.580    -280.590     -23.490
  H      -39.403    -277.643     -28.446
  H      -41.143    -280.654     -21.655
  H      -43.240    -281.869     -20.958
  H      -43.364    -282.568     -22.566
  P      -44.910    -278.903     -21.954
  C      -44.658    -279.239     -19.432
  O      -45.223    -279.742     -20.629
  O      -45.624    -279.767     -23.098
  O      -45.438    -277.504     -21.952
  H      -46.549    -279.473     -23.204
  H      -44.671    -280.026     -18.672
  H      -45.250    -278.391     -19.076
  H      -43.624    -278.917     -19.592
  H      -44.896    -286.031     -19.980
  H      -43.308    -286.467     -19.398
  H      -43.544    -286.082     -21.086

 3  4  5  6  7  8  9  10  11  12  23  26  30  31 0
 6-311+G(2d,p)
 ****
 33  35  36  37  38 0
 6-311+G(2d,p)
 ****
 1  2  13  14  15  16  17  18  19  20  21  22  24  25 0
 3-21G
 ****
 27  28  29  32  34  39  40  41  42  43  44  45  46  47  48  49 0
 3-21G
 ****


