%nproc=1
%NoSave
%Mem=1900MB
#P OB98/GEN NMR

erre ene a

0 1
  C     -593.487     -81.407    -263.271
  O     -593.215     -82.271    -262.186
  H     -594.551     -81.157    -263.298
  H     -592.913     -80.485    -263.141
  H     -593.192     -81.879    -264.213
  P     -593.993     -83.676    -262.169
  C     -592.687     -84.935    -264.035
  O     -593.871     -84.240    -263.667
  C     -593.019     -85.960    -265.113
  O     -594.036     -86.873    -264.638
  C     -593.577     -85.347    -266.393
  O     -592.565     -84.855    -267.247
  C     -594.277     -86.551    -266.999
  O     -593.307     -87.429    -267.597
  C     -594.897     -87.208    -265.758
  N     -599.822     -88.574    -265.487
  C     -598.703     -89.285    -265.747
  N     -597.430     -88.851    -265.778
  C     -597.364     -87.541    -265.495
  C     -598.416     -86.690    -265.207
  C     -599.703     -87.255    -265.211
  N     -600.848     -86.528    -264.980
  N     -597.958     -85.404    -264.990
  C     -596.649     -85.486    -265.130
  N     -596.247     -86.748    -265.469
  O     -595.534     -83.257    -262.067
  O     -593.576     -84.639    -261.109
  H     -593.792     -88.201    -267.939
  H     -596.080     -84.027    -261.825
  H     -598.856     -90.340    -265.957
  H     -595.960     -84.661    -265.011
  H     -594.935     -88.302    -265.834
  H     -594.987     -86.277    -267.786
  H     -594.324     -84.575    -266.176
  H     -592.116     -86.547    -265.321
  H     -592.283     -85.445    -263.154
  H     -601.728     -86.989    -265.153
  H     -600.784     -85.524    -264.921
  H     -591.948     -84.221    -264.408
  P     -593.024     -83.956    -268.503
  C     -591.971     -81.704    -267.745
  O     -593.162     -82.455    -267.954
  O     -594.537     -84.411    -268.731
  O     -592.187     -84.131    -269.727
  H     -594.777     -84.363    -269.676
  H     -592.223     -80.730    -267.380
  H     -591.440     -81.612    -268.670
  H     -591.355     -82.205    -267.028

 6  7  8  9  10  11  12  13  14  15  25  28  32  33  34  35 0
 6-311+G(2d,p)
 ****
 36  39  40 0
 6-311+G(2d,p)
 ****
 1  2  3  4  5  16  17  18  19  20  21  22  23  24 0
 3-21G
 ****
 26  27  29  30  31  37  38  41  42  43  44  45  46  47 0
 3-21G
 ****
 48 0
 3-21G
 ****


