%nproc=1
%NoSave
%Mem=1900MB
#P OB98/GEN NMR

erre ene a

0 1
  C       -9.012     -43.988     -31.198
  O       -9.069     -45.398     -31.320
  P       -8.784     -46.293     -30.020
  C       -6.363     -46.821     -30.893
  O       -7.190     -46.350     -29.846
  C       -4.887     -46.705     -30.499
  O       -4.568     -45.303     -30.278
  C       -4.508     -47.468     -29.223
  O       -3.174     -47.962     -29.405
  C       -4.534     -46.383     -28.161
  O       -3.762     -46.716     -27.018
  C       -3.998     -45.189     -28.959
  N       -4.333     -43.894     -28.365
  C       -3.298     -43.141     -27.820
  O       -2.125     -43.509     -27.791
  N       -3.663     -41.937     -27.273
  C       -4.934     -41.456     -27.160
  O       -5.205     -40.379     -26.643
  C       -5.991     -42.317     -27.709
  C       -5.647     -43.470     -28.285
  O       -9.170     -47.749     -30.555
  O       -9.530     -45.846     -28.809
  H       -8.940     -47.884     -31.490
  H       -3.794     -45.962     -26.401
  H       -2.922     -41.357     -26.906
  H       -7.016     -41.977     -27.624
  H       -6.409     -44.123     -28.696
  H       -2.910     -45.271     -29.070
  H       -5.568     -46.216     -27.837
  H       -5.188     -48.299     -29.014
  H       -4.278     -47.047     -31.345
  H       -6.539     -46.225     -31.793
  H       -6.625     -47.860     -31.122
  P       -2.810     -49.407     -28.794
  C       -1.679     -48.449     -26.636
  O       -2.697     -49.240     -27.205
  O       -1.275     -49.528     -29.249
  O       -3.653     -50.533     -29.295
  H       -0.758     -48.732     -29.047
  H       -1.965     -48.190     -25.612
  H       -1.529     -47.524     -27.199
  H       -0.745     -49.017     -26.607
  H       -9.224     -43.539     -32.146
  H       -8.034     -43.697     -30.876
  H       -9.735     -43.663     -30.480

 3  4  5  6  7  8  9  10  11  12  13  24  28  29  30  31  32 0
 6-311+G(2d,p)
 ****
 33  34 0
 6-311+G(2d,p)
 ****
 1  2  14  15  16  17  18  19  20  21  22  23  25  26  27 0
 3-21G
 ****
 35  36  37  38  39  40  41  42  43  44  45 0
 3-21G
 ****


