%nproc=1
%NoSave
%Mem=1900MB
#P OB98/GEN NMR

erre ene a

0 1
  C      -89.594    -219.041    -267.486
  O      -90.212    -218.038    -266.701
  H      -90.329    -219.824    -267.694
  H      -88.748    -219.485    -266.957
  H      -89.258    -218.617    -268.437
  P      -89.276    -216.907    -266.049
  C      -89.679    -217.568    -263.584
  O      -89.916    -216.602    -264.606
  C      -90.447    -217.216    -262.308
  O      -89.909    -216.017    -261.719
  C      -91.920    -216.920    -262.544
  O      -92.685    -218.047    -262.913
  C      -92.298    -216.129    -261.298
  O      -92.668    -216.952    -260.195
  C      -90.977    -215.389    -260.979
  N      -91.068    -213.961    -261.258
  C      -92.022    -213.260    -260.532
  O      -92.776    -213.789    -259.712
  N      -92.121    -211.925    -260.807
  C      -91.407    -211.250    -261.753
  O      -91.572    -210.057    -261.981
  C      -90.429    -212.048    -262.508
  C      -90.304    -213.349    -262.232
  O      -89.057    -215.683    -266.885
  O      -87.930    -217.690    -265.689
  H      -93.486    -217.420    -260.449
  H      -87.185    -217.062    -265.528
  H      -92.803    -211.400    -260.282
  H      -89.845    -211.546    -263.271
  H      -89.590    -213.959    -262.776
  H      -90.726    -215.507    -259.916
  H      -93.136    -215.457    -261.490
  H      -91.997    -216.220    -263.384
  H      -90.318    -218.036    -261.591
  H      -88.605    -217.567    -263.369
  H      -89.966    -218.562    -263.943
  P      -93.292    -218.256    -264.376
  C      -95.701    -218.276    -263.402
  O      -94.744    -218.932    -264.225
  O      -92.362    -218.779    -265.422
  O      -93.667    -216.738    -264.781
  H      -93.523    -216.648    -265.742
  H      -96.612    -218.837    -263.397
  H      -95.889    -217.295    -263.786
  H      -95.322    -218.202    -262.404

 6  7  8  9  10  11  12  13  14  15  16  26  31  32  33  34  35 0
 6-311+G(2d,p)
 ****
 36  37 0
 6-311+G(2d,p)
 ****
 1  2  3  4  5  17  18  19  20  21  22  23  24  25 0
 3-21G
 ****
 27  28  29  30  38  39  40  41  42  43  44  45 0
 3-21G
 ****


