%nproc=1
%NoSave
%Mem=1900MB
#P OB98/GEN NMR

erre ene a

0 1
  C     -183.268     166.167    -259.247
  O     -184.618     166.093    -259.703
  P     -185.031     166.916    -261.011
  C     -187.199     167.640    -262.219
  O     -186.633     167.035    -261.059
  C     -188.692     167.299    -262.331
  O     -188.834     165.877    -262.611
  C     -189.514     167.553    -261.059
  O     -190.095     168.843    -260.881
  C     -190.672     166.580    -261.255
  O     -191.677     167.175    -262.098
  C     -190.033     165.395    -261.972
  N     -191.961     161.970    -258.688
  C     -192.541     162.935    -259.432
  N     -191.956     163.808    -260.282
  C     -190.628     163.601    -260.339
  C     -189.899     162.654    -259.636
  C     -190.617     161.809    -258.776
  N     -190.021     160.835    -258.009
  N     -188.556     162.751    -259.945
  C     -188.479     163.755    -260.803
  N     -189.707     164.293    -261.080
  O     -184.381     166.495    -262.284
  O     -184.598     168.413    -260.624
  H     -192.007     167.958    -261.627
  H     -184.243     168.861    -261.423
  H     -193.618     163.024    -259.331
  H     -187.563     164.121    -261.245
  H     -190.680     164.985    -262.755
  H     -191.170     166.330    -260.310
  H     -188.940     167.278    -260.164
  H     -189.131     167.856    -263.174
  H     -186.668     167.284    -263.110
  H     -190.603     160.304    -257.385
  H     -189.015     160.740    -258.017
  H     -187.013     168.713    -262.152
  P     -189.236     170.070    -260.291
  C     -189.933     172.589    -260.302
  O     -190.293     171.248    -260.046
  O     -188.048     170.456    -261.102
  O     -188.900     169.575    -258.806
  H     -189.669     169.517    -258.215
  H     -190.835     173.207    -260.285
  H     -189.459     172.687    -261.284
  H     -189.252     172.945    -259.523
  H     -183.155     165.566    -258.369
  H     -183.024     167.183    -259.017
  H     -182.613     165.808    -260.013

 3  4  5  6  7  8  9  10  11  12  22  25  29  30  31  32 0
 6-311+G(2d,p)
 ****
 33  36  37 0
 6-311+G(2d,p)
 ****
 1  2  13  14  15  16  17  18  19  20  21  23  24  26 0
 3-21G
 ****
 27  28  34  35  38  39  40  41  42  43  44  45  46  47  48 0
 3-21G
 ****


