%nproc=1
%NoSave
%Mem=1900MB
#P OB98/GEN NMR

erre ene a

0 1
  C      383.844     608.482    -174.539
  O      382.880     607.924    -173.666
  P      381.343     608.335    -173.770
  C      380.694     606.125    -175.039
  O      380.684     607.538    -174.987
  C      379.249     605.617    -174.983
  O      378.490     606.147    -176.094
  C      379.184     604.101    -175.047
  O      379.125     603.537    -173.744
  C      377.931     603.849    -175.867
  O      376.757     603.949    -175.035
  C      377.973     605.028    -176.867
  N      378.818     604.888    -178.073
  C      378.429     604.020    -179.085
  O      377.394     603.363    -179.067
  N      379.304     603.903    -180.141
  C      380.471     604.592    -180.285
  O      381.348     604.309    -181.093
  C      380.688     605.683    -179.328
  C      379.881     605.759    -178.269
  O      381.409     609.843    -174.309
  O      380.556     608.227    -172.502
  H      376.000     603.654    -175.576
  H      381.299     610.475    -173.572
  H      379.097     603.171    -180.815
  H      381.526     606.346    -179.483
  H      380.042     606.536    -177.526
  H      376.970     605.297    -177.213
  H      377.925     602.846    -176.290
  H      380.044     603.702    -175.600
  H      378.778     605.980    -174.056
  H      381.271     605.725    -174.200
  H      381.181     605.786    -175.957
  P      380.364     602.701    -173.182
  C      380.632     603.943    -170.956
  O      381.173     603.723    -172.241
  O      381.175     601.988    -174.202
  O      379.677     601.681    -172.154
  H      379.543     600.809    -172.590
  H      381.360     604.503    -170.362
  H      380.427     602.999    -170.454
  H      379.714     604.543    -171.036
  H      384.809     608.080    -174.309
  H      383.862     609.545    -174.418
  H      383.590     608.242    -175.550

 3  4  5  6  7  8  9  10  11  12  13  23  28  29  30  31  32 0
 6-311+G(2d,p)
 ****
 33  34 0
 6-311+G(2d,p)
 ****
 1  2  14  15  16  17  18  19  20  21  22  24  25  26  27 0
 3-21G
 ****
 35  36  37  38  39  40  41  42  43  44  45 0
 3-21G
 ****


