%nproc=1
%NoSave
%Mem=1900MB
#P OB98/GEN NMR

erre ene a

0 1
  C     -893.060     352.921    -897.410
  O     -894.230     353.688    -897.170
  P     -895.600     353.222    -897.860
  C     -897.120     352.147    -895.970
  O     -896.220     351.983    -897.060
  C     -896.300     352.319    -894.680
  O     -895.480     353.501    -894.760
  C     -897.170     352.458    -893.440
  O     -897.520     351.195    -892.890
  C     -896.290     353.292    -892.530
  O     -895.280     352.473    -891.930
  C     -895.660     354.279    -893.540
  N     -896.410     355.515    -893.870
  C     -896.560     356.508    -892.910
  O     -896.100     356.451    -891.770
  N     -897.240     357.637    -893.300
  C     -897.650     357.928    -894.570
  O     -898.210     358.961    -894.880
  C     -897.340     356.900    -895.580
  C     -896.760     355.766    -895.190
  O     -895.120     352.570    -899.250
  O     -896.590     354.320    -898.080
  H     -894.870     352.992    -891.210
  H     -895.450     353.096    -900.000
  H     -897.420     358.335    -892.600
  H     -897.600     357.110    -896.610
  H     -896.530     355.000    -895.930
  H     -894.660     354.588    -893.200
  H     -896.860     353.724    -891.700
  H     -898.070     353.055    -893.670
  H     -895.640     351.445    -894.570
  H     -897.780     351.283    -895.890
  H     -897.750     353.018    -896.150
  P     -898.900     350.502    -893.320
  C     -897.790     348.256    -893.880
  O     -898.490     349.377    -894.390
  O     -900.000     351.416    -893.740
  O     -899.290     349.629    -892.030
  H     -899.940     350.122    -891.470
  H     -897.720     347.489    -894.670
  H     -898.330     347.825    -893.020
  H     -896.790     348.551    -893.570
  H     -892.235     353.355    -896.885
  H     -892.850     352.910    -898.459
  H     -893.214     351.919    -897.067

 3  4  5  6  7  8  9  10  11  12  13  23  28  29  30  31  32 0
 6-311+G(2d,p)
 ****
 33  34 0
 6-311+G(2d,p)
 ****
 1  2  14  15  16  17  18  19  20  21  22  24  25  26  27 0
 3-21G
 ****
 35  36  37  38  39  40  41  42  43  44  45 0
 3-21G
 ****


