%nproc=1
%NoSave
%Mem=1900MB
#P OB98/GEN NMR

erre ene a

0 1
  C      516.093     295.271     507.326
  O      516.388     293.886     507.287
  P      517.765     293.397     507.946
  C      519.427     293.640     505.945
  O      518.943     294.170     507.184
  C      520.937     293.812     505.853
  O      521.296     295.186     506.109
  C      521.734     292.986     506.851
  O      521.781     291.624     506.474
  C      523.079     293.720     506.824
  O      523.811     293.322     505.648
  C      522.629     295.197     506.684
  N      524.729     298.935     509.511
  C      525.004     298.459     508.276
  N      524.421     297.457     507.587
  C      523.437     296.911     508.338
  C      523.049     297.253     509.606
  C      523.726     298.320     510.211
  N      523.445     298.782     511.475
  N      522.023     296.438     510.054
  C      521.782     295.635     509.038
  N      522.602     295.884     507.965
  O      517.917     291.889     507.432
  O      517.806     293.489     509.437
  H      523.246     293.521     504.871
  H      518.345     291.335     508.102
  H      525.817     298.985     507.748
  H      521.031     294.850     509.030
  H      523.274     295.778     506.022
  H      523.695     293.521     507.689
  H      521.291     293.074     507.855
  H      521.238     293.571     504.824
  H      518.946     294.182     505.111
  H      524.080     299.446     511.882
  H      522.809     298.236     512.052
  H      519.139     292.581     505.886
  P      521.675     290.518     507.627
  C      523.738     291.566     508.734
  O      522.381     291.203     508.902
  O      522.765     289.442     507.157
  O      520.279     290.002     507.857
  H      523.609     289.851     506.931
  H      524.070     292.063     509.642
  H      523.846     292.258     507.886
  H      524.347     290.676     508.568
  H      515.150     295.448     506.853
  H      516.858     295.813     506.811
  H      516.048     295.598     508.344

 3  4  5  6  7  8  9  10  11  12  22  25  29  30  31  32 0
 6-311+G(2d,p)
 ****
 33  36  37 0
 6-311+G(2d,p)
 ****
 1  2  13  14  15  16  17  18  19  20  21  23  24  26 0
 3-21G
 ****
 27  28  34  35  38  39  40  41  42  43  44  45  46  47  48 0
 3-21G
 ****


