%nproc=1
%NoSave
%Mem=1900MB
#P OB98/GEN NMR

erre ene a

0 1
  C      723.717      44.448    -891.948
  O      722.538      43.998    -891.328
  H      723.984      45.431    -891.538
  H      723.557      44.546    -893.028
  H      724.545      43.755    -891.748
  P      722.088      42.486    -891.628
  C      721.286      41.231    -893.758
  O      721.467      42.482    -893.108
  C      721.447      41.382    -895.258
  O      722.828      41.647    -895.598
  C      721.033      40.159    -896.068
  O      719.622      40.112    -896.278
  C      721.775      40.417    -897.368
  O      721.080      41.412    -898.138
  C      723.116      40.982    -896.858
  N      728.066      39.933    -897.198
  C      727.382      41.084    -897.528
  N      728.107      42.100    -898.028
  N      726.088      41.228    -897.388
  C      725.481      40.126    -896.888
  C      726.052      38.927    -896.518
  C      727.482      38.792    -896.668
  O      728.145      37.798    -896.368
  N      725.120      38.055    -896.038
  C      723.977      38.707    -896.128
  N      724.140      39.969    -896.648
  O      720.808      42.280    -890.688
  O      723.130      41.443    -891.368
  H      720.261      40.991    -898.478
  H      720.802      41.354    -890.358
  H      729.059      39.869    -897.338
  H      723.001      38.315    -895.838
  H      723.541      41.726    -897.538
  H      721.863      39.529    -897.988
  H      729.103      42.038    -898.218
  H      721.406      39.232    -895.608
  H      727.626      42.963    -898.248
  H      720.868      42.266    -895.578
  H      720.274      40.848    -893.528
  H      722.020      40.526    -893.368
  P      719.021      38.792    -896.958
  C      720.015      37.522    -898.998
  O      719.584      38.772    -898.458
  O      717.469      39.167    -897.148
  O      719.211      37.538    -896.168
  H      716.932      38.352    -897.208
  H      720.362      37.667    -900.000
  H      719.196      36.833    -899.000
  H      720.810      37.130    -898.399

 6  7  8  9  10  11  12  13  14  15  26  29  33  34 0
 6-311+G(2d,p)
 ****
 36  38  39  40  41 0
 6-311+G(2d,p)
 ****
 1  2  3  4  5  16  17  18  19  20  21  22  23  24  25 0
 3-21G
 ****
 27  28  30  31  32  35  37  42  43  44  45  46  47 0
 3-21G
 ****
 48  49 0
 3-21G
 ****


