%nproc=1
%NoSave
%Mem=1900MB
#P OB98/GEN NMR

erre ene a

0 1
  C      197.582     325.713    -674.223
  O      196.761     326.591    -674.959
  H      196.952     325.107    -673.567
  H      198.285     326.290    -673.610
  H      198.139     325.040    -674.884
  P      197.379     327.362    -676.223
  C      195.533     326.417    -677.771
  O      196.185     327.579    -677.269
  C      194.250     326.796    -678.528
  O      193.195     327.091    -677.559
  C      194.448     328.069    -679.364
  O      193.584     328.089    -680.502
  C      194.027     329.172    -678.400
  O      193.632     330.376    -679.060
  C      192.891     328.491    -677.627
  N      190.533     331.926    -674.681
  C      190.594     331.844    -676.063
  N      189.925     332.809    -676.744
  N      191.255     330.925    -676.710
  C      191.934     330.071    -675.900
  C      191.975     330.067    -674.522
  C      191.207     331.074    -673.811
  O      191.147     331.199    -672.603
  N      192.785     329.056    -674.050
  C      193.225     328.457    -675.135
  N      192.723     329.019    -676.287
  O      198.270     326.240    -676.949
  O      198.188     328.584    -675.901
  H      194.265     330.527    -679.781
  H      198.953     326.651    -677.502
  H      189.985     332.637    -674.235
  H      193.907     327.608    -675.150
  H      191.948     328.601    -678.159
  H      194.881     329.421    -677.772
  H      189.572     333.632    -676.285
  H      195.475     328.204    -679.685
  H      190.203     332.945    -677.724
  H      193.901     325.944    -679.124
  H      195.299     325.794    -676.904
  H      196.206     325.849    -678.411
  P      193.921     329.108    -681.693
  C      193.986     327.361    -683.682
  O      193.422     328.508    -683.086
  O      195.519     329.039    -681.808
  O      193.432     330.517    -681.470
  H      195.920     329.911    -681.575
  H      193.486     327.157    -684.606
  H      193.874     326.525    -683.023
  H      195.026     327.531    -683.869

 6  7  8  9  10  11  12  13  14  15  26  29  33  34 0
 6-311+G(2d,p)
 ****
 36  38  39  40  41 0
 6-311+G(2d,p)
 ****
 1  2  3  4  5  16  17  18  19  20  21  22  23  24  25 0
 3-21G
 ****
 27  28  30  31  32  35  37  42  43  44  45  46  47 0
 3-21G
 ****
 48  49 0
 3-21G
 ****


