%nproc=1
%NoSave
%Mem=1900MB
#P OB98/GEN NMR

erre ene a

0 1
  C     -153.346       3.370      75.970
  O     -153.642       2.626      74.803
  P     -154.600       3.284      73.698
  C     -153.260       5.122      72.386
  O     -154.086       4.788      73.485
  C     -153.096       6.642      72.287
  O     -154.364       7.226      71.876
  C     -152.679       7.323      73.596
  O     -151.822       8.419      73.250
  C     -154.000       7.834      74.145
  O     -153.836       8.897      75.069
  C     -154.715       8.230      72.848
  N     -156.168       8.325      72.988
  C     -156.761       9.565      72.785
  O     -156.136      10.590      72.520
  N     -158.125       9.603      72.932
  C     -158.922       8.565      73.315
  O     -160.136       8.660      73.447
  C     -158.234       7.291      73.561
  C     -156.914       7.229      73.378
  O     -155.958       3.449      74.525
  O     -154.716       2.478      72.449
  H     -155.809       3.672      75.460
  H     -154.720       9.181      75.366
  H     -158.580      10.484      72.753
  H     -158.831       6.445      73.880
  H     -156.384       6.300      73.555
  H     -154.319       9.184      72.479
  H     -154.523       7.017      74.654
  H     -152.159       6.644      74.275
  H     -152.369       6.857      71.494
  H     -153.713       4.752      71.463
  H     -152.287       4.632      72.503
  P     -150.849       9.008      74.389
  C     -148.476       8.331      73.514
  O     -149.535       8.094      74.416
  O     -151.637       8.539      75.707
  O     -150.639      10.486      74.338
  H     -151.897       7.603      75.678
  H     -147.574       7.852      73.901
  H     -148.282       9.400      73.400
  H     -148.718       7.896      72.541
  H     -152.700       2.798      76.603
  H     -154.254       3.591      76.492
  H     -152.860       4.284      75.697

 3  4  5  6  7  8  9  10  11  12  13  24  28  29  30  31  32 0
 6-311+G(2d,p)
 ****
 33  34 0
 6-311+G(2d,p)
 ****
 1  2  14  15  16  17  18  19  20  21  22  23  25  26  27 0
 3-21G
 ****
 35  36  37  38  39  40  41  42  43  44  45 0
 3-21G
 ****


