%nproc=1
%NoSave
%Mem=1900MB
#P OB98/GEN NMR

erre ene a

0 1
  C      421.192    -173.091     283.390
  O      420.130    -172.154     283.383
  H      420.985    -173.885     282.671
  H      422.111    -172.579     283.096
  H      421.329    -173.513     284.390
  P      418.750    -172.606     284.067
  C      416.945    -174.389     283.516
  O      418.268    -173.929     283.285
  C      416.725    -175.735     282.821
  O      416.733    -175.518     281.377
  C      417.784    -176.800     283.143
  O      417.132    -178.076     283.252
  C      418.663    -176.803     281.904
  O      419.337    -178.039     281.708
  C      417.640    -176.477     280.813
  N      418.852    -177.543     275.985
  C      417.976    -178.115     276.843
  N      417.674    -177.732     278.102
  C      418.329    -176.599     278.424
  C      419.250    -175.907     277.661
  C      419.519    -176.432     276.381
  N      420.455    -175.901     275.525
  N      419.752    -174.828     278.364
  C      419.163    -174.893     279.548
  N      418.300    -175.945     279.631
  O      417.730    -171.475     283.559
  O      418.773    -172.710     285.554
  H      418.667    -178.756     281.648
  H      417.746    -170.717     284.171
  H      417.459    -178.997     276.475
  H      419.352    -174.221     280.376
  H      417.066    -177.356     280.503
  H      419.414    -176.013     281.986
  H      418.351    -176.596     284.060
  H      415.718    -176.096     283.081
  H      416.233    -173.661     283.116
  H      420.659    -176.414     274.678
  H      421.036    -175.139     275.852
  H      416.778    -174.486     284.599
  P      416.485    -178.450     284.671
  C      417.201    -179.770     286.803
  O      417.579    -179.254     285.534
  O      415.415    -179.578     284.295
  O      415.846    -177.295     285.374
  H      414.647    -179.528     284.897
  H      418.035    -180.274     287.246
  H      416.391    -180.459     286.681
  H      416.892    -178.966     287.438

 6  7  8  9  10  11  12  13  14  15  25  28  32  33  34  35 0
 6-311+G(2d,p)
 ****
 36  39  40 0
 6-311+G(2d,p)
 ****
 1  2  3  4  5  16  17  18  19  20  21  22  23  24 0
 3-21G
 ****
 26  27  29  30  31  37  38  41  42  43  44  45  46  47 0
 3-21G
 ****
 48 0
 3-21G
 ****


