%nproc=1
%NoSave
%Mem=1900MB
#P OB98/GEN NMR

erre ene a

0 1
  C     -474.867    -443.193    -438.758
  O     -474.051    -442.163    -439.305
  P     -472.613    -442.555    -439.894
  C     -472.221    -440.713    -441.659
  O     -472.536    -442.083    -441.424
  C     -473.231    -440.080    -442.633
  O     -474.554    -440.150    -442.059
  C     -472.993    -438.596    -442.947
  O     -472.136    -438.260    -444.025
  C     -474.395    -438.146    -443.338
  O     -474.632    -438.465    -444.729
  C     -475.306    -438.993    -442.456
  N     -478.968    -435.913    -440.647
  C     -478.785    -436.458    -441.864
  N     -477.774    -437.274    -442.263
  C     -476.928    -437.514    -441.255
  C     -476.993    -437.017    -439.958
  C     -478.081    -436.182    -439.663
  N     -478.278    -435.609    -438.430
  N     -475.932    -437.473    -439.205
  C     -475.221    -438.219    -440.036
  N     -475.783    -438.279    -441.281
  O     -472.157    -443.952    -439.628
  O     -471.646    -441.494    -439.165
  H     -474.117    -437.824    -445.254
  H     -470.796    -441.939    -438.951
  H     -479.528    -436.229    -442.613
  H     -474.308    -438.714    -439.778
  H     -476.190    -439.345    -443.003
  H     -474.529    -437.070    -443.244
  H     -472.670    -438.062    -442.042
  H     -473.232    -440.658    -443.569
  H     -471.205    -440.636    -442.078
  H     -479.057    -434.979    -438.310
  H     -477.591    -435.751    -437.699
  H     -472.210    -440.213    -440.687
  P     -470.552    -438.526    -443.959
  C     -470.101    -439.644    -446.279
  O     -470.291    -439.805    -444.892
  O     -469.991    -438.642    -442.584
  O     -469.954    -437.325    -444.821
  H     -470.159    -437.366    -445.777
  H     -469.710    -440.586    -446.688
  H     -469.367    -438.855    -446.491
  H     -471.035    -439.399    -446.767
  H     -475.787    -442.772    -438.410
  H     -474.355    -443.657    -437.941
  H     -475.072    -443.924    -439.512

 3  4  5  6  7  8  9  10  11  12  22  25  29  30  31  32 0
 6-311+G(2d,p)
 ****
 33  36  37 0
 6-311+G(2d,p)
 ****
 1  2  13  14  15  16  17  18  19  20  21  23  24  26 0
 3-21G
 ****
 27  28  34  35  38  39  40  41  42  43  44  45  46  47  48 0
 3-21G
 ****


