%nproc=1
%NoSave
%Mem=1900MB
#P OB98/GEN NMR

erre ene a

0 1
  C      619.033    -123.040    -546.337
  O      619.796    -123.098    -547.525
  H      618.020    -123.417    -546.522
  H      619.505    -123.678    -545.581
  H      618.988    -122.020    -545.953
  P      619.269    -122.215    -548.764
  C      620.059    -124.050    -550.430
  O      618.976    -123.260    -549.947
  C      619.514    -125.239    -551.224
  O      619.128    -126.303    -550.334
  C      618.266    -124.919    -552.046
  O      618.588    -124.289    -553.279
  C      617.715    -126.317    -552.270
  O      618.477    -126.979    -553.305
  C      617.967    -126.975    -550.909
  N      613.292    -128.749    -549.810
  C      614.159    -129.019    -550.808
  N      615.380    -128.517    -551.027
  C      615.701    -127.611    -550.092
  C      614.921    -127.202    -549.019
  C      613.657    -127.818    -548.886
  N      612.774    -127.513    -547.872
  N      615.556    -126.220    -548.282
  C      616.726    -126.067    -548.893
  N      616.849    -126.868    -550.003
  O      620.591    -121.450    -549.270
  O      618.146    -121.275    -548.463
  H      618.039    -127.840    -553.465
  H      620.341    -120.670    -549.794
  H      613.819    -129.784    -551.523
  H      617.497    -125.380    -548.578
  H      618.221    -128.043    -551.002
  H      616.670    -126.323    -552.594
  H      617.532    -124.334    -551.469
  H      620.318    -125.617    -551.872
  H      620.643    -124.423    -549.582
  H      611.836    -127.875    -547.972
  H      612.973    -126.732    -547.281
  H      620.703    -123.434    -551.064
  P      617.701    -123.006    -553.698
  C      618.623    -123.105    -556.138
  O      617.475    -123.126    -555.284
  O      618.745    -121.789    -553.565
  O      616.474    -122.792    -552.873
  H      618.277    -120.959    -553.377
  H      618.311    -123.193    -557.158
  H      619.267    -123.923    -555.890
  H      619.150    -122.183    -556.005

 6  7  8  9  10  11  12  13  14  15  25  28  32  33  34  35 0
 6-311+G(2d,p)
 ****
 36  39  40 0
 6-311+G(2d,p)
 ****
 1  2  3  4  5  16  17  18  19  20  21  22  23  24 0
 3-21G
 ****
 26  27  29  30  31  37  38  41  42  43  44  45  46  47 0
 3-21G
 ****
 48 0
 3-21G
 ****


