%nproc=1
%NoSave
%Mem=1900MB
#P OB98/GEN NMR

erre ene a

0 1
  C      -52.207     -55.690     127.266
  O      -53.221     -54.702     127.231
  H      -52.668     -56.660     127.471
  H      -51.484     -55.477     128.059
  H      -51.694     -55.740     126.303
  P      -52.780     -53.167     127.101
  C      -53.687     -53.238     124.679
  O      -52.597     -52.904     125.533
  C      -54.430     -51.973     124.260
  O      -53.513     -51.026     123.676
  C      -55.495     -52.226     123.204
  O      -56.643     -52.819     123.776
  C      -55.687     -50.828     122.651
  O      -56.531     -50.042     123.500
  C      -54.236     -50.290     122.661
  N      -53.581     -50.406     121.363
  C      -53.481     -49.226     120.618
  O      -53.926     -48.169     121.063
  N      -52.899     -49.286     119.377
  C      -52.443     -50.412     118.927
  N      -51.879     -50.401     117.689
  C      -52.516     -51.675     119.685
  C      -53.095     -51.601     120.882
  O      -51.621     -52.725     127.941
  O      -54.118     -52.360     127.451
  H      -56.626     -49.177     123.056
  H      -54.170     -52.184     128.408
  H      -52.117     -52.588     119.273
  H      -53.188     -52.483     121.506
  H      -54.219     -49.235     122.962
  H      -56.140     -50.848     121.660
  H      -55.091     -52.855     122.404
  H      -54.864     -51.514     125.158
  H      -51.861     -49.513     117.200
  H      -54.352     -53.897     125.247
  H      -51.415     -51.194     117.276
  H      -53.333     -53.780     123.794
  P      -57.670     -53.652     122.867
  C      -57.498     -55.884     124.149
  O      -57.173     -55.178     122.955
  O      -57.876     -53.122     121.488
  O      -59.007     -53.662     123.749
  H      -59.457     -52.783     123.732
  H      -57.116     -56.882     124.089
  H      -58.561     -55.915     124.267
  H      -57.061     -55.385     124.989

 6  7  8  9  10  11  12  13  14  15  16  26  30  31  32  33  35 0
 6-311+G(2d,p)
 ****
 37  38 0
 6-311+G(2d,p)
 ****
 1  2  3  4  5  17  18  19  20  21  22  23  24  25 0
 3-21G
 ****
 27  28  29  34  36  39  40  41  42  43  44  45  46 0
 3-21G
 ****


