%nproc=1
%NoSave
%Mem=1900MB
#P OB98/GEN NMR

erre ene a

0 1
  C      102.470    -102.517     168.746
  O      103.186    -103.735     168.821
  H      101.717    -102.473     169.539
  H      103.171    -101.690     168.881
  H      101.989    -102.418     167.769
  P      102.334    -105.080     168.617
  C      103.583    -106.347     170.505
  O      102.346    -105.836     170.033
  C      103.377    -107.087     171.824
  O      104.623    -107.655     172.276
  C      102.883    -106.215     172.973
  O      101.483    -105.986     172.898
  C      103.240    -107.089     174.166
  O      102.257    -108.130     174.318
  C      104.584    -107.694     173.728
  N      108.744    -108.039     176.685
  C      107.831    -108.957     176.304
  N      106.761    -108.795     175.497
  C      106.691    -107.529     175.055
  C      107.560    -106.488     175.336
  C      108.628    -106.777     176.200
  N      109.521    -105.809     176.639
  N      107.152    -105.326     174.708
  C      106.046    -105.659     174.074
  N      105.732    -106.979     174.247
  O      103.297    -105.973     167.697
  O      100.991    -104.894     167.994
  H      101.422    -107.692     174.570
  H      103.026    -105.881     166.765
  H      107.972    -109.956     176.705
  H      105.443    -104.980     173.486
  H      104.679    -108.744     174.024
  H      103.276    -106.535     175.110
  H      103.443    -105.275     173.036
  H      102.681    -107.918     171.639
  H      104.284    -105.520     170.662
  H      109.911    -106.003     177.556
  H      109.226    -104.858     176.459
  H      103.994    -107.024     169.751
  P      100.931    -104.562     173.393
  C      100.123    -105.520     175.657
  O      100.974    -104.592     175.000
  O       99.370    -104.648     173.053
  O      101.562    -103.377     172.751
  H       99.117    -103.899     172.479
  H      100.252    -105.434     176.716
  H      100.372    -106.513     175.347
  H       99.105    -105.312     175.403

 6  7  8  9  10  11  12  13  14  15  25  28  32  33  34  35 0
 6-311+G(2d,p)
 ****
 36  39  40 0
 6-311+G(2d,p)
 ****
 1  2  3  4  5  16  17  18  19  20  21  22  23  24 0
 3-21G
 ****
 26  27  29  30  31  37  38  41  42  43  44  45  46  47  48 0
 3-21G
 ****


