%nproc=1
%NoSave
%Mem=1900MB
#P OB98/GEN NMR

erre ene a

0 1
  C       13.330      10.022       2.084
  O       12.500      10.027       3.227
  H       12.699      10.043       1.192
  H       13.947       9.121       2.054
  H       13.969      10.910       2.079
  P       13.171       9.839       4.669
  C       12.925       7.297       5.001
  O       13.808       8.366       4.687
  C       13.685       6.140       5.651
  O       14.357       5.385       4.607
  C       14.740       6.593       6.667
  O       14.756       5.657       7.746
  C       16.025       6.510       5.869
  O       17.152       6.366       6.713
  C       15.757       5.324       4.938
  N       16.604       5.383       3.748
  C       17.786       4.636       3.785
  O       18.062       3.961       4.778
  N       18.658       4.720       2.732
  C       18.404       5.524       1.748
  N       19.330       5.589       0.755
  C       17.184       6.353       1.679
  C       16.336       6.233       2.700
  O       12.307      10.159       5.843
  O       14.458      10.790       4.613
  H       17.949       6.201       6.165
  H       14.230      11.681       4.939
  H       17.021       7.012       0.840
  H       15.420       6.811       2.740
  H       15.941       4.373       5.454
  H       16.156       7.428       5.284
  H       14.560       7.602       7.049
  H       12.958       5.463       6.114
  H       20.162       5.021       0.857
  H       12.466       6.956       4.067
  H       19.263       6.207      -0.039
  H       12.137       7.652       5.671
  P       14.451       6.134       9.247
  C       16.767       5.812      10.286
  O       15.789       6.762       9.879
  O       13.781       5.111      10.104
  O       13.502       7.413       9.055
  H       12.901       7.485       9.820
  H       17.615       6.324      10.691
  H       17.072       5.230       9.442
  H       16.350       5.168      11.032

 6  7  8  9  10  11  12  13  14  15  16  26  30  31  32  33  35 0
 6-311+G(2d,p)
 ****
 37  38 0
 6-311+G(2d,p)
 ****
 1  2  3  4  5  17  18  19  20  21  22  23  24  25 0
 3-21G
 ****
 27  28  29  34  36  39  40  41  42  43  44  45  46 0
 3-21G
 ****


