%nproc=1
%NoSave
%Mem=1900MB
#P OB98/GEN NMR

erre ene a

0 1
  C     1181.895     260.493     549.614
  O     1180.875     260.966     548.724
  P     1180.057     262.259     549.181
  C     1178.156     261.197     550.574
  O     1179.352     261.942     550.589
  C     1177.349     261.380     551.882
  O     1176.046     260.755     551.775
  C     1178.047     260.740     553.097
  O     1177.731     261.557     554.246
  C     1177.344     259.406     553.257
  O     1177.507     258.867     554.569
  C     1175.909     259.799     552.859
  N     1171.867     256.923     554.125
  C     1172.444     258.012     554.707
  N     1173.536     258.716     554.319
  C     1174.033     258.206     553.168
  C     1173.578     257.104     552.463
  C     1172.440     256.458     552.992
  N     1171.894     255.335     552.400
  N     1174.369     256.866     551.361
  C     1175.298     257.814     551.405
  N     1175.109     258.649     552.461
  O     1178.823     262.310     548.155
  O     1180.835     263.547     549.143
  H     1176.845     258.148     554.666
  H     1178.958     263.028     547.511
  H     1171.945     258.372     555.618
  H     1176.123     257.916     550.708
  H     1175.376     260.299     553.701
  H     1177.754     258.692     552.535
  H     1179.133     260.643     553.021
  H     1177.196     262.425     552.047
  H     1178.373     260.125     550.439
  H     1171.095     254.921     552.854
  H     1172.322     254.932     551.590
  H     1177.551     261.487     549.699
  P     1178.963     262.193     555.047
  C     1178.706     260.707     557.167
  O     1179.473     261.038     556.034
  O     1178.269     263.225     556.039
  O     1180.000     262.828     554.192
  H     1178.904     263.928     556.277
  H     1178.695     259.613     557.286
  H     1177.665     261.047     557.091
  H     1179.164     261.149     558.053
  H     1182.363     259.628     549.192
  H     1181.456     260.238     550.556
  H     1182.627     261.260     549.758

 3  4  5  6  7  8  9  10  11  12  22  25  29  30  31  32 0
 6-311+G(2d,p)
 ****
 33  36  37 0
 6-311+G(2d,p)
 ****
 1  2  13  14  15  16  17  18  19  20  21  23  24  26 0
 3-21G
 ****
 27  28  34  35  38  39  40  41  42  43  44  45  46  47  48 0
 3-21G
 ****


