%nproc=1
%NoSave
%Mem=1900MB
#P OB98/GEN NMR

erre ene a

0 1
  C      -25.946     182.090      68.592
  O      -27.102     182.037      67.775
  P      -27.112     180.962      66.582
  C      -28.460     179.158      67.888
  O      -28.417     180.055      66.785
  C      -29.907     178.925      68.318
  O      -30.476     180.146      68.830
  C      -30.838     178.482      67.197
  O      -30.635     177.117      66.870
  C      -32.194     178.793      67.819
  O      -32.558     177.762      68.750
  C      -31.906     180.105      68.571
  N      -35.834     182.983      66.992
  C      -35.785     181.839      67.710
  N      -34.704     181.120      68.071
  C      -33.579     181.698      67.620
  C      -33.473     182.849      66.859
  C      -34.671     183.509      66.545
  N      -34.715     184.673      65.807
  N      -32.154     183.122      66.562
  C      -31.474     182.157      67.146
  N      -32.288     181.281      67.809
  O      -25.913     179.979      66.967
  O      -26.944     181.542      65.212
  H      -32.648     176.931      68.241
  H      -25.465     179.643      66.167
  H      -36.745     181.450      68.040
  H      -30.398     182.054      67.120
  H      -32.419     180.157      69.538
  H      -32.999     178.870      67.081
  H      -30.684     179.102      66.305
  H      -29.905     178.182      69.126
  H      -27.908     179.588      68.730
  H      -35.621     184.997      65.501
  H      -33.864     184.983      65.357
  H      -27.981     178.219      67.602
  P      -30.536     176.739      65.313
  C      -27.988     176.614      65.608
  O      -29.157     175.922      65.205
  O      -30.161     178.149      64.662
  O      -31.739     176.061      64.755
  H      -29.429     178.585      65.131
  H      -27.137     175.932      65.533
  H      -28.086     176.951      66.644
  H      -27.813     177.471      64.950
  H      -26.073     182.844      69.341
  H      -25.094     182.326      67.989
  H      -25.798     181.141      69.063

 3  4  5  6  7  8  9  10  11  12  22  25  29  30  31  32 0
 6-311+G(2d,p)
 ****
 33  36  37 0
 6-311+G(2d,p)
 ****
 1  2  13  14  15  16  17  18  19  20  21  23  24  26 0
 3-21G
 ****
 27  28  34  35  38  39  40  41  42  43  44  45  46  47  48 0
 3-21G
 ****


