%nproc=1
%NoSave
%Mem=1900MB
#P OB98/GEN NMR

erre ene a

0 1
  C      -63.193     -22.706      -4.032
  O      -62.249     -22.119      -3.132
  P      -60.761     -22.721      -3.144
  C      -59.665     -20.404      -3.520
  O      -59.743     -21.560      -2.700
  C      -59.063     -19.217      -2.759
  O      -60.077     -18.550      -1.954
  C      -57.928     -19.609      -1.809
  O      -56.989     -18.526      -1.782
  C      -58.620     -19.687      -0.463
  O      -57.689     -19.596       0.613
  C      -59.600     -18.522      -0.592
  N      -61.281     -17.133       4.022
  C      -60.133     -16.871       3.362
  N      -59.750     -17.300       2.139
  C      -60.721     -18.040       1.577
  C      -61.938     -18.400       2.130
  C      -62.210     -17.913       3.419
  N      -63.367     -18.200       4.105
  N      -62.645     -19.211       1.264
  C      -61.863     -19.340       0.211
  N      -60.706     -18.628       0.340
  O      -60.457     -22.911      -4.704
  O      -60.624     -24.007      -2.401
  H      -57.065     -20.350       0.541
  H      -60.467     -23.859      -4.931
  H      -59.423     -16.237       3.887
  H      -62.083     -19.937      -0.661
  H      -59.121     -17.551      -0.416
  H      -59.156     -20.640      -0.373
  H      -57.413     -20.539      -2.070
  H      -58.694     -18.489      -3.491
  H      -60.662     -20.130      -3.878
  H      -63.471     -17.836       5.038
  H      -64.046     -18.818       3.685
  H      -59.081     -20.640      -4.416
  P      -55.512     -18.846      -2.312
  C      -55.218     -16.555      -3.491
  O      -54.777     -17.433      -2.473
  O      -55.747     -19.328      -3.820
  O      -54.781     -19.870      -1.505
  H      -55.020     -19.911      -4.104
  H      -55.217     -15.534      -3.100
  H      -56.227     -16.797      -3.839
  H      -54.527     -16.613      -4.336
  H      -64.139     -22.217      -3.925
  H      -63.301     -23.746      -3.807
  H      -62.845     -22.593      -5.037

 3  4  5  6  7  8  9  10  11  12  22  25  29  30  31  32 0
 6-311+G(2d,p)
 ****
 33  36  37 0
 6-311+G(2d,p)
 ****
 1  2  13  14  15  16  17  18  19  20  21  23  24  26 0
 3-21G
 ****
 27  28  34  35  38  39  40  41  42  43  44  45  46  47  48 0
 3-21G
 ****


