%nproc=1
%NoSave
%Mem=1900MB
#P OB98/GEN NMR

erre ene a

0 1
  C     -155.209     -37.194     330.558
  O     -155.624     -36.905     329.210
  P     -155.191     -35.506     328.543
  C     -155.793     -32.975     328.858
  O     -155.982     -34.318     329.279
  C     -156.999     -32.113     329.261
  O     -158.079     -32.290     328.318
  C     -157.587     -32.463     330.619
  O     -156.806     -31.956     331.686
  C     -158.970     -31.820     330.515
  O     -158.904     -30.417     330.827
  C     -159.313     -32.039     329.031
  N     -160.282     -33.110     328.825
  C     -161.544     -32.727     328.394
  O     -161.880     -31.554     328.231
  N     -162.434     -33.745     328.171
  C     -162.210     -35.076     328.409
  O     -163.054     -35.937     328.211
  C     -160.883     -35.407     328.947
  C     -159.996     -34.426     329.128
  O     -155.938     -35.565     327.122
  O     -153.723     -35.297     328.362
  H     -158.159     -30.049     330.304
  H     -155.440     -35.037     326.470
  H     -163.348     -33.500     327.827
  H     -160.671     -36.448     329.171
  H     -159.011     -34.656     329.524
  H     -159.720     -31.114     328.598
  H     -159.691     -32.268     331.206
  H     -157.711     -33.553     330.708
  H     -156.687     -31.061     329.232
  H     -155.677     -32.952     327.773
  H     -154.872     -32.587     329.313
  P     -155.983     -33.025     332.553
  C     -156.716     -34.628     334.491
  O     -156.981     -33.467     333.733
  O     -154.896     -32.079     333.260
  O     -155.409     -34.136     331.731
  H     -155.253     -31.192     333.450
  H     -155.640     -34.791     334.613
  H     -157.165     -35.498     333.995
  H     -157.161     -34.514     335.482
  H     -155.578     -38.156     330.846
  H     -155.600     -36.449     331.219
  H     -154.140     -37.191     330.610

 3  4  5  6  7  8  9  10  11  12  13  23  28  29  30  31  32 0
 6-311+G(2d,p)
 ****
 33  34 0
 6-311+G(2d,p)
 ****
 1  2  14  15  16  17  18  19  20  21  22  24  25  26 0
 3-21G
 ****
 27  35  36  37  38  39  40  41  42  43  44  45 0
 3-21G
 ****


