%nproc=1
%NoSave
%Mem=1900MB
#P OB98/GEN NMR

erre ene a

0 1
  C     -293.789     195.219    -187.130
  O     -295.026     194.848    -187.705
  H     -293.698     194.738    -186.152
  H     -293.735     196.300    -186.993
  H     -292.962     194.881    -187.762
  P     -295.437     195.486    -189.114
  C     -297.142     197.106    -188.032
  O     -296.937     196.030    -188.940
  C     -298.606     197.171    -187.596
  O     -299.464     197.257    -188.753
  C     -299.078     195.947    -186.818
  O     -298.582     195.977    -185.495
  C     -300.582     196.094    -186.955
  O     -301.089     197.082    -186.042
  C     -300.706     196.590    -188.418
  N     -300.996     195.524    -189.372
  C     -302.320     195.079    -189.424
  O     -303.170     195.576    -188.682
  N     -302.643     194.074    -190.302
  C     -301.735     193.581    -191.093
  N     -302.121     192.594    -191.943
  C     -300.336     194.047    -191.096
  C     -300.034     194.996    -190.211
  O     -295.227     194.621    -190.319
  O     -294.570     196.830    -189.194
  H     -300.764     196.822    -185.158
  H     -293.738     196.671    -189.676
  H     -299.614     193.616    -191.774
  H     -299.022     195.395    -190.148
  H     -301.503     197.340    -188.502
  H     -301.114     195.164    -186.746
  H     -298.771     195.029    -187.330
  H     -298.744     198.088    -187.011
  H     -303.096     192.323    -191.916
  H     -296.863     198.028    -188.551
  H     -301.548     192.258    -192.703
  H     -296.495     196.998    -187.154
  P     -297.476     194.932    -184.985
  C     -299.074     194.273    -183.082
  O     -297.767     194.720    -183.422
  O     -296.070     195.288    -185.323
  O     -297.948     193.543    -185.621
  H     -297.713     193.508    -186.583
  H     -299.150     194.168    -182.020
  H     -299.260     193.328    -183.548
  H     -299.795     194.987    -183.422

 6  7  8  9  10  11  12  13  14  15  16  26  30  31  32  33  35 0
 6-311+G(2d,p)
 ****
 37  38 0
 6-311+G(2d,p)
 ****
 1  2  3  4  5  17  18  19  20  21  22  23  24  25 0
 3-21G
 ****
 27  28  29  34  36  39  40  41  42  43  44  45  46 0
 3-21G
 ****


