%nproc=1
%NoSave
%Mem=1900MB
#P OB98/GEN NMR

erre ene a

0 1
  C      -24.684    -106.089      78.865
  O      -23.772    -105.586      77.910
  H      -25.110    -107.020      78.483
  H      -25.497    -105.378      79.036
  H      -24.169    -106.302      79.805
  P      -23.094    -104.157      78.184
  C      -24.983    -103.066      76.785
  O      -24.306    -103.110      78.031
  C      -25.332    -101.624      76.425
  O      -26.341    -101.097      77.311
  C      -24.172    -100.639      76.528
  O      -23.233    -100.760      75.474
  C      -24.937     -99.326      76.479
  O      -25.348     -99.059      75.127
  C      -26.157     -99.655      77.374
  N      -25.983     -99.221      78.758
  C      -27.070     -98.571      79.354
  O      -28.110     -98.384      78.723
  N      -26.942     -98.110      80.642
  C      -25.822     -98.268      81.274
  N      -25.732     -97.751      82.531
  C      -24.657     -98.962      80.692
  C      -24.801     -99.404      79.444
  O      -21.872    -103.841      77.384
  O      -22.845    -104.131      79.764
  H      -26.023     -98.357      75.167
  H      -22.414    -103.269      79.984
  H      -23.743     -99.060      81.259
  H      -23.984     -99.910      78.942
  H      -27.068     -99.198      76.972
  H      -24.346     -98.469      76.815
  H      -23.678    -100.719      77.503
  H      -25.765    -101.631      75.415
  H      -26.534     -97.245      82.881
  H      -25.886    -103.680      76.866
  H      -24.832     -97.587      82.970
  H      -24.345    -103.474      75.996
  P      -21.700    -100.395      75.788
  C      -22.238     -97.876      75.402
  O      -21.679     -98.860      76.255
  O      -21.038    -100.357      74.334
  O      -20.990    -101.326      76.719
  H      -20.636    -101.219      74.107
  H      -22.144     -96.913      75.859
  H      -23.273     -98.093      75.237
  H      -21.720     -97.879      74.466

 6  7  8  9  10  11  12  13  14  15  16  26  30  31  32  33  35 0
 6-311+G(2d,p)
 ****
 37  38 0
 6-311+G(2d,p)
 ****
 1  2  3  4  5  17  18  19  20  21  22  23  24  25 0
 3-21G
 ****
 27  28  29  34  36  39  40  41  42  43  44  45  46 0
 3-21G
 ****


