%nproc=1
%NoSave
%Mem=1900MB
#P OB98/GEN NMR

erre ene a

0 1
  C      765.381    -212.175    -356.723
  O      765.983    -212.543    -355.493
  P      767.422    -212.032    -355.037
  C      769.854    -212.184    -355.975
  O      768.528    -212.709    -355.993
  C      770.921    -213.230    -356.312
  O      770.942    -214.238    -355.280
  C      770.561    -213.957    -357.610
  O      770.893    -213.382    -358.860
  C      771.048    -215.389    -357.407
  O      772.325    -215.618    -358.013
  C      771.150    -215.525    -355.896
  N      769.459    -220.307    -355.845
  C      770.636    -219.806    -356.359
  N      771.372    -220.669    -357.109
  N      771.052    -218.575    -356.160
  C      770.170    -217.815    -355.466
  C      768.972    -218.203    -354.906
  C      768.543    -219.564    -355.103
  O      767.466    -220.038    -354.739
  N      768.302    -217.144    -354.347
  C      769.086    -216.107    -354.590
  N      770.195    -216.461    -355.314
  O      767.685    -211.978    -353.570
  O      767.404    -210.504    -355.576
  H      772.675    -216.467    -357.637
  H      767.913    -209.963    -354.941
  H      769.151    -221.246    -356.104
  H      768.859    -215.083    -354.317
  H      772.143    -215.852    -355.599
  H      770.346    -216.097    -357.873
  H      771.017    -221.568    -357.402
  H      769.462    -214.032    -357.633
  H      772.151    -220.285    -357.630
  H      771.921    -212.781    -356.318
  H      770.022    -211.750    -354.982
  H      769.916    -211.351    -356.694
  P      770.122    -213.622    -360.241
  C      769.402    -215.572    -361.739
  O      770.132    -215.180    -360.571
  O      771.130    -213.018    -361.350
  O      768.783    -212.952    -360.345
  H      770.612    -212.798    -362.160
  H      769.218    -216.651    -361.685
  H      770.007    -215.353    -362.621
  H      768.451    -215.044    -361.793
  H      764.421    -212.641    -356.804
  H      766.002    -212.495    -357.534
  H      765.266    -211.112    -356.760

 3  4  5  6  7  8  9  10  11  12  23  26  30  31 0
 6-311+G(2d,p)
 ****
 33  35  36  37  38 0
 6-311+G(2d,p)
 ****
 1  2  13  14  15  16  17  18  19  20  21  22  24  25 0
 3-21G
 ****
 27  28  29  32  34  39  40  41  42  43  44  45  46  47  48  49 0
 3-21G
 ****


