%nproc=1
%NoSave
%Mem=1900MB
#P OB98/GEN NMR

erre ene a

0 1
  C     -290.884    -235.064    -159.117
  O     -291.678    -235.670    -158.117
  H     -290.236    -235.829    -159.556
  H     -290.257    -234.290    -158.669
  H     -291.502    -234.631    -159.903
  P     -292.933    -234.860    -157.535
  C     -294.633    -236.086    -159.045
  O     -294.057    -234.840    -158.681
  C     -296.157    -236.054    -158.868
  O     -296.710    -235.064    -159.768
  C     -296.792    -237.401    -159.237
  O     -298.006    -237.632    -158.527
  C     -297.107    -237.230    -160.715
  O     -298.136    -238.106    -161.172
  C     -297.479    -235.751    -160.775
  N     -299.317    -234.747    -165.423
  C     -299.831    -235.574    -164.442
  N     -300.986    -236.217    -164.744
  N     -299.250    -235.770    -163.289
  C     -298.066    -235.126    -163.160
  C     -297.448    -234.296    -164.068
  C     -298.115    -234.058    -165.332
  O     -297.694    -233.348    -166.241
  N     -296.250    -233.828    -163.581
  C     -296.147    -234.375    -162.382
  N     -297.237    -235.149    -162.074
  O     -292.425    -233.338    -157.520
  O     -293.409    -235.294    -156.182
  H     -298.976    -237.800    -160.779
  H     -292.945    -232.817    -156.884
  H     -299.818    -234.607    -166.284
  H     -295.312    -234.229    -161.706
  H     -298.538    -235.607    -160.542
  H     -296.204    -237.465    -161.287
  H     -301.352    -236.240    -165.681
  H     -296.120    -238.241    -159.075
  H     -301.201    -237.046    -164.179
  H     -296.405    -235.734    -157.847
  H     -294.186    -236.843    -158.396
  H     -294.367    -236.342    -160.075
  P     -298.279    -239.096    -157.927
  C     -297.834    -238.645    -155.353
  O     -297.469    -239.278    -156.563
  O     -297.531    -240.069    -158.945
  O     -299.732    -239.444    -157.781
  H     -298.173    -240.641    -159.405
  H     -297.143    -238.920    -154.584
  H     -298.820    -238.953    -155.073
  H     -297.816    -237.583    -155.486

 6  7  8  9  10  11  12  13  14  15  26  29  33  34 0
 6-311+G(2d,p)
 ****
 36  38  39  40  41 0
 6-311+G(2d,p)
 ****
 1  2  3  4  5  16  17  18  19  20  21  22  23  24  25 0
 3-21G
 ****
 27  28  30  31  32  35  37  42  43  44  45  46  47 0
 3-21G
 ****
 48  49 0
 3-21G
 ****


