%nproc=1
%NoSave
%Mem=1900MB
#P OB98/GEN NMR

erre ene a

0 1
  C      643.028      -0.680    -921.016
  O      642.188      -1.759    -921.376
  H      642.570       0.269    -921.313
  H      643.158      -0.684    -919.931
  H      644.007      -0.787    -921.491
  P      641.872      -1.941    -922.940
  C      640.475       0.210    -923.360
  O      640.470      -1.201    -923.191
  C      639.040       0.730    -923.351
  O      638.264       0.075    -924.381
  C      638.291       0.484    -922.045
  O      638.608       1.447    -921.053
  C      636.856       0.633    -922.519
  O      636.539       2.031    -922.678
  C      636.905      -0.060    -923.889
  N      633.072      -3.404    -923.319
  C      633.106      -2.054    -923.295
  N      634.162      -1.234    -923.452
  C      635.284      -1.949    -923.648
  C      635.411      -3.327    -923.687
  C      634.229      -4.070    -923.521
  N      634.197      -5.447    -923.527
  N      636.730      -3.692    -923.871
  C      637.384      -2.553    -923.975
  N      636.555      -1.469    -923.835
  O      641.492      -3.492    -923.068
  O      642.966      -1.540    -923.874
  H      636.487       2.408    -921.782
  H      641.599      -3.785    -923.994
  H      632.148      -1.563    -923.131
  H      638.447      -2.454    -924.150
  H      636.241       0.414    -924.622
  H      636.128       0.219    -921.824
  H      638.448      -0.537    -921.680
  H      639.069       1.806    -923.584
  H      640.943       0.458    -924.315
  H      633.343      -5.880    -923.212
  H      635.077      -5.950    -923.524
  H      641.054       0.665    -922.552
  P      639.103       0.896    -919.631
  C      636.723       0.093    -918.963
  O      637.824       0.952    -918.668
  O      640.031       2.083    -919.085
  O      639.825      -0.411    -919.679
  H      640.698       1.744    -918.465
  H      635.950       0.242    -918.238
  H      637.048      -0.926    -918.933
  H      636.346       0.319    -919.938

 6  7  8  9  10  11  12  13  14  15  25  28  32  33  34  35 0
 6-311+G(2d,p)
 ****
 36  39  40 0
 6-311+G(2d,p)
 ****
 1  2  3  4  5  16  17  18  19  20  21  22  23  24 0
 3-21G
 ****
 26  27  29  30  31  37  38  41  42  43  44  45  46  47 0
 3-21G
 ****
 48 0
 3-21G
 ****


