%nproc=1
%NoSave
%Mem=1900MB
#P OB98/GEN NMR

erre ene a

0 1
  C     -660.991    -160.115     125.606
  O     -660.326    -160.041     126.857
  H     -661.193    -159.103     125.254
  H     -661.941    -160.644     125.729
  H     -660.367    -160.627     124.867
  P     -659.640    -161.389     127.397
  C     -657.412    -160.062     127.533
  O     -658.313    -160.940     128.186
  C     -655.970    -160.417     127.900
  O     -655.702    -160.096     129.272
  C     -655.620    -161.887     127.712
  O     -655.281    -162.191     126.370
  C     -654.405    -162.005     128.627
  O     -653.247    -161.439     127.960
  C     -654.811    -161.112     129.813
  N     -655.032    -161.859     134.828
  C     -654.147    -161.104     134.087
  N     -653.176    -160.462     134.773
  N     -654.203    -160.992     132.777
  C     -655.213    -161.711     132.222
  C     -656.148    -162.502     132.858
  C     -656.085    -162.602     134.298
  O     -656.848    -163.251     135.007
  N     -657.014    -163.073     131.962
  C     -656.584    -162.648     130.789
  N     -655.491    -161.817     130.889
  O     -659.073    -162.061     126.059
  O     -660.557    -162.318     128.129
  H     -653.220    -161.825     127.068
  H     -659.678    -162.785     125.790
  H     -654.941    -161.925     135.835
  H     -657.038    -162.897     129.840
  H     -653.948    -160.595     130.261
  H     -654.160    -163.039     128.874
  H     -653.063    -160.523     135.781
  H     -656.423    -162.548     128.092
  H     -652.514    -159.899     134.246
  H     -655.305    -159.782     127.281
  H     -657.622    -159.032     127.844
  H     -657.553    -160.144     126.450
  P     -655.685    -163.631     125.787
  C     -654.920    -162.949     123.400
  O     -654.788    -163.872     124.471
  O     -657.150    -163.372     125.195
  O     -655.682    -164.745     126.779
  H     -657.819    -163.845     125.731
  H     -654.268    -163.234     122.601
  H     -654.659    -161.969     123.740
  H     -655.932    -162.949     123.052

 6  7  8  9  10  11  12  13  14  15  26  29  33  34 0
 6-311+G(2d,p)
 ****
 36  38  39  40  41 0
 6-311+G(2d,p)
 ****
 1  2  3  4  5  16  17  18  19  20  21  22  23  24  25 0
 3-21G
 ****
 27  28  30  31  32  35  37  42  43  44  45  46  47 0
 3-21G
 ****
 48  49 0
 3-21G
 ****


