%nproc=1
%NoSave
%Mem=1900MB
#P OB98/GEN NMR

erre ene a

0 1
  C      306.266    -413.386    -639.722
  O      307.484    -412.891    -639.194
  P      307.400    -411.728    -638.095
  C      306.336    -409.358    -638.332
  O      307.200    -410.352    -638.882
  C      305.874    -408.409    -639.443
  O      304.898    -409.062    -640.289
  C      305.189    -407.151    -638.926
  O      306.130    -406.193    -638.463
  C      304.410    -406.692    -640.146
  O      305.241    -405.935    -641.036
  C      304.011    -408.038    -640.785
  N      302.599    -408.379    -640.546
  C      301.667    -407.449    -640.979
  O      301.982    -406.385    -641.522
  N      300.353    -407.764    -640.744
  C      299.901    -408.866    -640.081
  O      298.720    -409.059    -639.849
  C      300.947    -409.803    -639.618
  C      302.223    -409.513    -639.860
  O      308.890    -411.628    -637.526
  O      306.399    -411.971    -637.006
  H      305.917    -406.549    -641.379
  H      308.870    -411.413    -636.567
  H      299.662    -407.108    -641.073
  H      300.618    -410.687    -639.079
  H      302.998    -410.184    -639.514
  H      304.171    -408.003    -641.868
  H      303.563    -406.063    -639.883
  H      304.478    -407.412    -638.120
  H      306.739    -408.138    -640.059
  H      306.890    -408.796    -637.573
  H      305.480    -409.843    -637.863
  P      305.553    -404.936    -637.648
  C      303.657    -403.272    -638.292
  O      304.712    -404.095    -638.719
  O      306.897    -404.096    -637.412
  O      304.834    -405.336    -636.401
  H      307.535    -404.207    -638.146
  H      303.868    -402.806    -637.327
  H      302.742    -403.858    -638.217
  H      303.506    -402.480    -639.036
  H      306.474    -414.153    -640.439
  H      305.733    -412.589    -640.196
  H      305.672    -413.790    -638.929

 3  4  5  6  7  8  9  10  11  12  13  23  28  29  30  31  32 0
 6-311+G(2d,p)
 ****
 33  34 0
 6-311+G(2d,p)
 ****
 1  2  14  15  16  17  18  19  20  21  22  24  25  26 0
 3-21G
 ****
 27  35  36  37  38  39  40  41  42  43  44  45 0
 3-21G
 ****


