%nproc=1
%NoSave
%Mem=1900MB
#P OB98/GEN NMR

erre ene a

0 1
  C      -38.141    -375.734     496.101
  O      -39.486    -375.710     496.539
  P      -39.824    -375.453     498.082
  C      -41.092    -376.805     499.909
  O      -40.438    -376.816     498.660
  C      -41.873    -378.107     500.138
  O      -42.971    -378.138     499.196
  C      -41.074    -379.383     499.897
  O      -41.750    -380.470     500.529
  C      -41.173    -379.532     498.394
  O      -40.906    -380.862     497.963
  C      -42.605    -379.014     498.102
  N      -42.670    -378.289     496.823
  C      -42.673    -379.054     495.660
  O      -42.707    -380.284     495.673
  N      -42.557    -378.365     494.486
  C      -42.389    -377.012     494.379
  O      -41.977    -376.451     493.368
  C      -42.629    -376.244     495.611
  C      -42.733    -376.906     496.767
  O      -41.080    -374.468     498.010
  O      -38.708    -374.876     498.880
  H      -41.090    -380.890     496.997
  H      -40.788    -373.541     498.107
  H      -42.415    -378.926     493.658
  H      -42.657    -375.162     495.539
  H      -42.859    -376.362     497.696
  H      -43.328    -379.842     498.058
  H      -40.435    -378.875     497.918
  H      -40.035    -379.333     500.234
  H      -42.297    -378.100     501.151
  H      -41.760    -375.939     499.959
  H      -40.365    -376.678     500.716
  P      -40.918    -381.811     500.809
  C      -41.108    -384.109     499.676
  O      -41.056    -382.709     499.489
  O      -41.213    -382.510     502.094
  O      -39.396    -381.316     500.742
  H      -38.816    -381.963     501.180
  H      -41.693    -384.553     498.866
  H      -41.577    -384.370     500.634
  H      -40.097    -384.518     499.648
  H      -38.112    -375.917     495.047
  H      -37.613    -376.511     496.613
  H      -37.680    -374.791     496.312

 3  4  5  6  7  8  9  10  11  12  13  23  28  29  30  31  32 0
 6-311+G(2d,p)
 ****
 33  34 0
 6-311+G(2d,p)
 ****
 1  2  14  15  16  17  18  19  20  21  22  24  25  26  27 0
 3-21G
 ****
 35  36  37  38  39  40  41  42  43  44  45 0
 3-21G
 ****


