%nproc=1
%NoSave
%Mem=1900MB
#P OB98/GEN NMR

erre ene a

0 1
  C     -545.043    -429.984     326.933
  O     -544.913    -428.743     326.249
  P     -544.615    -428.798     324.668
  C     -542.654    -429.685     323.225
  O     -543.162    -429.477     324.535
  C     -541.164    -429.383     323.179
  O     -540.461    -430.242     324.100
  C     -540.503    -429.619     321.822
  O     -540.721    -428.531     320.930
  C     -539.035    -429.721     322.219
  O     -538.478    -428.400     322.369
  C     -539.119    -430.425     323.587
  N     -536.088    -434.156     325.185
  C     -536.066    -432.806     325.491
  N     -535.126    -432.406     326.361
  N     -536.904    -431.933     324.978
  C     -537.817    -432.492     324.151
  C     -537.934    -433.814     323.772
  C     -536.978    -434.760     324.294
  O     -536.892    -435.951     324.012
  N     -538.994    -433.996     322.913
  C     -539.544    -432.798     322.814
  N     -538.834    -431.846     323.525
  O     -544.343    -427.267     324.301
  O     -545.708    -429.395     323.836
  H     -537.607    -428.506     322.793
  H     -544.542    -427.112     323.358
  H     -535.431    -434.793     325.619
  H     -540.442    -432.582     322.247
  H     -538.429    -429.966     324.316
  H     -538.430    -430.245     321.476
  H     -534.546    -433.045     326.894
  H     -540.832    -430.561     321.383
  H     -535.120    -431.423     326.631
  H     -541.010    -428.336     323.500
  H     -543.172    -429.016     322.520
  H     -542.847    -430.722     322.926
  P     -540.601    -428.857     319.363
  C     -539.004    -430.367     317.974
  O     -539.247    -429.694     319.202
  O     -540.266    -427.435     318.719
  O     -541.828    -429.470     318.771
  H     -540.560    -427.404     317.785
  H     -539.381    -429.800     317.122
  H     -539.479    -431.348     318.003
  H     -537.919    -430.508     317.869
  H     -545.238    -429.801     327.969
  H     -544.136    -430.543     326.834
  H     -545.853    -430.541     326.510

 3  4  5  6  7  8  9  10  11  12  23  26  30  31  33  0
 6-311+G(2d,p)
 ****
 35  36  37  38 0
 6-311+G(2d,p)
 ****
 1  2  13  14  15  16  17  18  19  20  21  22  24  25  27  28  29 0
 3-21G
 ****
 32  34  39  40  41  42  43  44  45  46  47  48  49 0
 3-21G
 ****


