%nproc=1
%NoSave
%Mem=1900MB
#P OB98/GEN NMR

erre ene a

0 1
  C     -233.003    -255.649    -320.871
  O     -232.970    -256.316    -319.625
  H     -233.484    -256.297    -321.606
  H     -231.986    -255.432    -321.206
  H     -233.575    -254.718    -320.792
  P     -232.407    -255.492    -318.371
  C     -233.948    -256.344    -316.450
  O     -232.673    -256.404    -317.076
  C     -234.982    -257.071    -317.309
  O     -234.545    -258.445    -317.499
  C     -236.377    -257.115    -316.674
  O     -237.363    -256.998    -317.703
  C     -236.436    -258.508    -316.064
  O     -237.757    -258.994    -315.878
  C     -235.625    -259.307    -317.084
  N     -235.108    -260.559    -316.541
  C     -236.022    -261.431    -315.950
  O     -237.241    -261.253    -315.924
  N     -235.482    -262.548    -315.368
  C     -234.153    -262.860    -315.296
  O     -233.730    -263.868    -314.740
  C     -233.239    -261.900    -315.932
  C     -233.748    -260.812    -316.510
  O     -233.466    -254.302    -318.202
  O     -231.005    -254.999    -318.501
  H     -233.194    -253.525    -318.726
  H     -238.190    -258.437    -315.194
  H     -236.128    -263.189    -314.935
  H     -232.179    -262.110    -315.887
  H     -233.101    -260.075    -316.974
  H     -236.235    -259.519    -317.979
  H     -235.936    -258.507    -315.086
  H     -236.528    -256.339    -315.925
  H     -235.016    -256.603    -318.303
  H     -234.245    -255.294    -316.339
  H     -233.888    -256.802    -315.460
  P     -238.473    -255.845    -317.531
  C     -239.272    -254.895    -319.835
  O     -239.385    -255.915    -318.852
  O     -237.591    -254.528    -317.724
  O     -239.212    -255.938    -316.236
  H     -236.887    -254.624    -318.390
  H     -239.947    -255.099    -320.640
  H     -238.269    -254.869    -320.208
  H     -239.515    -253.949    -319.397

 6  7  8  9  10  11  12  13  14  15  16  27  31  32  33  34  35 0
 6-311+G(2d,p)
 ****
 36  37 0
 6-311+G(2d,p)
 ****
 1  2  3  4  5  17  18  19  20  21  22  23  24  25 0
 3-21G
 ****
 26  28  29  30  38  39  40  41  42  43  44  45 0
 3-21G
 ****


