%nproc=1
%NoSave
%Mem=1900MB
#P OB98/GEN NMR

erre ene a

0 1
  C      -27.329     587.659    -360.626
  O      -28.125     587.446    -361.782
  P      -28.212     585.951    -362.366
  C      -27.036     586.513    -364.602
  O      -26.971     585.786    -363.382
  C      -25.721     586.384    -365.373
  O      -25.819     587.177    -366.594
  C      -24.487     586.870    -364.602
  O      -23.410     585.938    -364.793
  C      -24.108     588.165    -365.303
  O      -22.723     588.476    -365.155
  C      -24.535     587.832    -366.737
  N      -21.928     591.407    -369.200
  C      -21.486     590.241    -368.599
  N      -20.151     590.035    -368.610
  N      -22.277     589.361    -368.035
  C      -23.593     589.687    -368.127
  C      -24.155     590.805    -368.698
  C      -23.259     591.803    -369.269
  O      -23.588     592.890    -369.733
  N      -25.527     590.776    -368.613
  C      -25.786     589.645    -367.983
  N      -24.650     588.976    -367.624
  O      -29.484     586.017    -363.331
  O      -28.361     584.875    -361.344
  H      -22.576     589.316    -365.630
  H      -30.135     585.332    -363.070
  H      -21.277     592.063    -369.594
  H      -26.786     589.294    -367.736
  H      -23.839     587.124    -367.191
  H      -24.698     588.992    -364.885
  H      -19.492     590.644    -369.057
  H      -24.654     587.014    -363.524
  H      -19.806     589.170    -368.199
  H      -25.599     585.339    -365.681
  H      -27.217     587.573    -364.390
  H      -27.862     586.123    -365.202
  P      -22.287     585.893    -363.645
  C      -20.626     587.296    -365.086
  O      -21.361     587.183    -363.879
  O      -21.360     584.663    -364.073
  O      -22.848     585.727    -362.261
  H      -20.895     584.294    -363.297
  H      -20.915     586.527    -365.818
  H      -19.565     587.191    -364.864
  H      -20.812     588.282    -365.521
  H      -27.365     588.693    -360.354
  H      -26.317     587.380    -360.833
  H      -27.705     587.065    -359.820

 3  4  5  6  7  8  9  10  11  12  23  26  30  31  33  0
 6-311+G(2d,p)
 ****
 35  36  37  38 0
 6-311+G(2d,p)
 ****
 1  2  13  14  15  16  17  18  19  20  21  22  24  25  27  28  29 0
 3-21G
 ****
 32  34  39  40  41  42  43  44  45  46  47  48  49 0
 3-21G
 ****


