%nproc=1
%NoSave
%Mem=1900MB
#P OB98/GEN NMR

erre ene a

0 1
  C     -257.161     -49.723    -718.030
  O     -256.092     -48.779    -718.121
  P     -254.593     -49.381    -718.135
  C     -253.005     -50.557    -716.487
  O     -254.235     -49.907    -716.661
  C     -252.856     -51.134    -715.062
  O     -252.737     -50.082    -714.075
  C     -254.036     -52.029    -714.646
  O     -253.516     -53.069    -713.798
  C     -254.880     -51.093    -713.801
  O     -255.764     -51.824    -712.952
  C     -253.796     -50.267    -713.095
  N     -254.285     -49.000    -712.565
  C     -255.159     -49.073    -711.481
  O     -255.551     -50.158    -711.057
  N     -255.614     -47.894    -710.924
  C     -255.259     -46.758    -711.443
  N     -255.737     -45.634    -710.843
  C     -254.367     -46.640    -712.623
  C     -253.929     -47.802    -713.119
  O     -253.676     -48.076    -718.319
  O     -254.368     -50.364    -719.241
  H     -256.239     -52.492    -713.514
  H     -253.041     -48.210    -719.046
  H     -254.105     -45.675    -713.029
  H     -253.267     -47.824    -713.976
  H     -253.363     -50.844    -712.254
  H     -255.492     -50.445    -714.443
  H     -254.571     -52.474    -715.490
  H     -251.930     -51.730    -715.020
  H     -256.340     -45.747    -710.045
  H     -252.172     -49.854    -716.658
  H     -255.536     -44.705    -711.166
  H     -252.892     -51.343    -717.238
  P     -253.891     -54.588    -714.151
  C     -255.731     -56.199    -713.352
  O     -255.268     -54.864    -713.343
  O     -252.829     -55.387    -713.239
  O     -253.837     -55.030    -715.576
  H     -252.902     -56.353    -713.416
  H     -256.598     -56.266    -712.673
  H     -254.954     -56.880    -712.999
  H     -256.065     -56.468    -714.363
  H     -258.096     -49.204    -718.030
  H     -257.065     -50.285    -717.124
  H     -257.122     -50.388    -718.868

 3  4  5  6  7  8  9  10  11  12  13  21  23  27  28  29  30  32 0
 6-311+G(2d,p)
 ****
 34  35 0
 6-311+G(2d,p)
 ****
 1  2  14  15  16  17  18  19  20  22  24  25  26 0
 3-21G
 ****
 31  33  36  37  38  39  40  41  42  43  44  45  46 0
 3-21G
 ****


