%nproc=1
%NoSave
%Mem=1900MB
#P OB98/GEN NMR

erre ene a

0 1
  C      515.392     278.739     -86.683
  O      514.831     277.716     -85.881
  P      513.282     277.367     -86.095
  C      513.584     274.968     -87.058
  O      513.142     275.776     -85.969
  C      513.556     273.479     -86.694
  O      514.570     273.218     -85.692
  C      512.224     272.994     -86.139
  O      511.992     271.666     -86.637
  C      512.455     272.931     -84.639
  O      511.573     272.013     -84.003
  C      513.939     272.543     -84.592
  N      514.566     272.895     -83.320
  C      514.669     271.889     -82.350
  O      514.171     270.774     -82.573
  N      515.273     272.169     -81.155
  C      515.650     273.379     -80.889
  N      516.242     273.617     -79.691
  C      515.445     274.512     -81.831
  C      514.920     274.193     -83.016
  O      513.065     277.632     -87.672
  O      512.333     278.176     -85.263
  H      511.724     272.060     -83.028
  H      512.161     277.951     -87.851
  H      515.734     275.515     -81.539
  H      514.756     274.962     -83.784
  H      514.068     271.465     -84.737
  H      512.291     273.931     -84.193
  H      511.377     273.637     -86.424
  H      513.835     272.907     -87.591
  H      516.360     272.829     -79.061
  H      514.619     275.244     -87.298
  H      516.564     274.531     -79.402
  H      512.958     275.168     -87.927
  P      510.524     271.290     -87.164
  C      511.266     270.666     -89.543
  O      510.759     270.198     -88.304
  O      510.178     272.606     -88.032
  O      509.455     271.031     -86.154
  H      509.260     272.531     -88.375
  H      511.497     269.800     -90.173
  H      512.164     271.258     -89.388
  H      510.503     271.288     -90.058
  H      516.425     278.862     -86.433
  H      514.870     279.657     -86.507
  H      515.304     278.471     -87.715

 3  4  5  6  7  8  9  10  11  12  13  21  23  27  28  29  30  32 0
 6-311+G(2d,p)
 ****
 34  35 0
 6-311+G(2d,p)
 ****
 1  2  14  15  16  17  18  19  20  22  24  25  26 0
 3-21G
 ****
 31  33  36  37  38  39  40  41  42  43  44  45  46 0
 3-21G
 ****


