%nproc=1
%NoSave
%Mem=1900MB
#P OB98/GEN NMR

erre ene a

0 1
  C      431.497    -318.394      57.616
  O      430.667    -317.487      58.368
  P      429.207    -317.973      58.845
  C      427.569    -316.045      58.163
  O      428.321    -316.681      59.186
  C      427.328    -314.577      58.520
  O      428.474    -313.772      58.150
  C      426.145    -313.940      57.799
  O      424.910    -314.329      58.370
  C      426.450    -312.455      57.972
  O      426.009    -311.984      59.264
  C      427.992    -312.431      57.885
  N      428.473    -311.934      56.600
  C      429.030    -310.660      56.601
  O      429.076    -309.943      57.603
  N      429.515    -310.218      55.396
  C      429.431    -310.877      54.204
  O      429.860    -310.418      53.147
  C      428.756    -312.188      54.255
  C      428.308    -312.648      55.425
  O      429.512    -318.564      60.302
  O      428.556    -319.005      57.982
  H      426.320    -312.639      59.919
  H      428.867    -319.263      60.519
  H      429.951    -309.309      55.380
  H      428.647    -312.740      53.321
  H      427.811    -313.608      55.476
  H      428.405    -311.804      58.685
  H      425.951    -311.832      57.223
  H      426.182    -314.189      56.737
  H      427.200    -314.507      59.609
  H      426.600    -316.548      58.056
  H      428.115    -316.132      57.216
  P      423.725    -314.698      57.334
  C      421.739    -313.344      58.382
  O      422.370    -314.599      58.189
  O      423.972    -316.261      57.136
  O      423.774    -313.887      56.081
  H      424.314    -316.691      57.945
  H      421.867    -312.693      57.503
  H      422.156    -312.851      59.260
  H      420.665    -313.513      58.536
  H      432.425    -317.917      57.381
  H      430.997    -318.667      56.710
  H      431.685    -319.272      58.198

 3  4  5  6  7  8  9  10  11  12  13  23  28  29  30  31  32 0
 6-311+G(2d,p)
 ****
 33  34 0
 6-311+G(2d,p)
 ****
 1  2  14  15  16  17  18  19  20  21  22  24  25  26 0
 3-21G
 ****
 27  35  36  37  38  39  40  41  42  43  44  45 0
 3-21G
 ****


