%nproc=1
%NoSave
%Mem=1900MB
#P OB98/GEN NMR

erre ene a

0 1
  C       92.025      22.928      56.513
  O       90.908      23.773      56.336
  H       92.828      23.215      55.830
  H       92.385      23.030      57.541
  H       91.743      21.885      56.341
  P       90.215      23.767      54.888
  C       91.609      25.853      54.211
  O       91.246      24.513      53.909
  C       92.810      26.263      53.366
  O       93.944      25.422      53.672
  C       92.592      26.130      51.863
  O       91.884      27.233      51.323
  C       94.031      26.107      51.374
  O       94.569      27.443      51.386
  C       94.712      25.249      52.448
  N       97.593      21.515      50.464
  C       97.821      22.834      50.639
  N       97.001      23.762      51.172
  C       95.837      23.209      51.543
  C       95.458      21.882      51.420
  C       96.403      21.008      50.856
  N       96.167      19.666      50.662
  N       94.168      21.698      51.882
  C       93.792      22.887      52.306
  N       94.761      23.836      52.114
  O       89.024      24.826      55.036
  O       89.743      22.438      54.402
  H       95.442      27.395      50.955
  H       88.351      24.671      54.346
  H       98.793      23.191      50.306
  H       92.835      23.111      52.757
  H       95.739      25.571      52.656
  H       94.131      25.729      50.355
  H       92.111      25.177      51.606
  H       93.077      27.293      53.632
  H       91.872      25.925      55.272
  H       96.831      19.171      50.085
  H       95.232      19.315      50.812
  H       90.758      26.511      54.009
  P       90.710      26.914      50.276
  C       92.395      27.350      48.341
  O       91.443      26.465      48.922
  O       90.132      28.363      49.925
  O       89.655      25.987      50.783
  H       89.199      28.307      49.646
  H       92.793      26.911      47.450
  H       93.189      27.526      49.036
  H       91.919      28.278      48.100

 6  7  8  9  10  11  12  13  14  15  25  28  32  33  34  35 0
 6-311+G(2d,p)
 ****
 36  39  40 0
 6-311+G(2d,p)
 ****
 1  2  3  4  5  16  17  18  19  20  21  22  23  24 0
 3-21G
 ****
 26  27  29  30  31  37  38  41  42  43  44  45  46  47 0
 3-21G
 ****
 48 0
 3-21G
 ****


