%nproc=1
%NoSave
%Mem=1900MB
#P OB98/GEN NMR

erre ene a

0 1
  C      267.168     581.842     514.880
  O      266.618     583.135     514.783
  P      265.053     583.377     514.534
  C      264.980     584.319     516.928
  O      264.378     583.434     516.007
  C      264.086     585.529     517.204
  O      262.908     585.109     517.968
  C      264.756     586.671     517.992
  O      264.174     587.891     517.492
  C      264.297     586.408     519.407
  O      264.429     587.544     520.251
  C      262.868     585.921     519.177
  N      262.340     585.173     520.305
  C      261.926     585.919     521.418
  O      262.075     587.151     521.414
  N      261.389     585.265     522.505
  C      261.384     583.972     522.525
  N      260.842     583.378     523.632
  C      261.931     583.144     521.428
  C      262.358     583.799     520.361
  O      264.405     582.409     513.594
  O      264.971     584.904     514.060
  H      265.390     587.801     520.277
  H      265.249     584.978     513.110
  H      261.948     582.065     521.523
  H      262.782     583.264     519.514
  H      262.201     586.763     518.971
  H      264.909     585.598     519.852
  H      265.848     586.684     517.883
  H      263.702     585.899     516.237
  H      260.468     583.987     524.345
  H      265.922     584.681     516.497
  H      260.706     582.382     523.702
  H      265.217     583.794     517.855
  P      264.940     589.292     517.664
  C      265.827     589.136     515.276
  O      266.164     589.298     516.641
  O      265.299     589.650     519.087
  O      263.931     590.374     517.036
  H      264.197     591.265     517.333
  H      266.683     589.425     514.646
  H      264.970     589.751     515.012
  H      265.593     588.075     515.086
  H      268.223     581.915     515.046
  H      266.986     581.308     513.971
  H      266.713     581.321     515.697

 3  4  5  6  7  8  9  10  11  12  13  23  27  28  29  30  32 0
 6-311+G(2d,p)
 ****
 34  35 0
 6-311+G(2d,p)
 ****
 1  2  14  15  16  17  18  19  20  21  22  24  25  26 0
 3-21G
 ****
 31  33  36  37  38  39  40  41  42  43  44  45  46 0
 3-21G
 ****


