%nproc=1
%NoSave
%Mem=1900MB
#P OB98/GEN NMR

erre ene a

0 1
  C      186.515    -512.913    -212.745
  O      185.786    -513.557    -213.767
  H      187.350    -512.374    -213.198
  H      186.910    -513.661    -212.050
  H      185.891    -512.198    -212.200
  P      184.292    -514.041    -213.462
  C      183.231    -511.841    -214.294
  O      183.395    -512.733    -213.200
  C      181.798    -511.854    -214.832
  O      180.871    -511.433    -213.802
  C      181.602    -510.882    -215.998
  O      181.969    -511.380    -217.269
  C      180.101    -510.609    -215.925
  O      179.364    -511.618    -216.639
  C      179.811    -510.692    -214.424
  N      176.730    -506.821    -213.120
  C      176.435    -507.967    -213.833
  N      175.172    -508.063    -214.310
  N      177.302    -508.914    -214.072
  C      178.553    -508.641    -213.617
  C      178.964    -507.532    -212.906
  C      177.984    -506.516    -212.599
  O      178.194    -505.479    -211.975
  N      180.311    -507.599    -212.611
  C      180.715    -508.708    -213.205
  N      179.678    -509.384    -213.808
  O      184.397    -514.687    -211.996
  O      183.722    -515.021    -214.440
  H      179.680    -512.491    -216.351
  H      183.700    -515.358    -211.878
  H      176.017    -506.143    -212.938
  H      181.736    -509.073    -213.210
  H      178.881    -511.240    -214.229
  H      179.843    -509.645    -216.384
  H      174.505    -507.309    -214.256
  H      182.132    -509.941    -215.798
  H      174.992    -508.744    -215.055
  H      181.528    -512.881    -215.109
  H      183.922    -512.165    -215.075
  H      183.520    -510.823    -214.004
  P      182.333    -510.362    -218.452
  C      184.720    -509.897    -217.498
  O      183.464    -509.372    -217.883
  O      181.033    -509.445    -218.545
  O      182.658    -511.007    -219.757
  H      180.437    -509.767    -219.252
  H      185.345    -509.103    -217.146
  H      185.182    -510.369    -218.340
  H      184.582    -510.616    -216.717

 6  7  8  9  10  11  12  13  14  15  26  29  33  34 0
 6-311+G(2d,p)
 ****
 36  38  39  40  41 0
 6-311+G(2d,p)
 ****
 1  2  3  4  5  16  17  18  19  20  21  22  23  24  25 0
 3-21G
 ****
 27  28  30  31  32  35  37  42  43  44  45  46  47 0
 3-21G
 ****
 48  49 0
 3-21G
 ****


