%nproc=1
%NoSave
%Mem=1900MB
#P OB98/GEN NMR

erre ene a

0 1
  C      669.654      62.121     731.468
  O      669.280      60.840     731.943
  P      670.439      59.736     732.081
  C      670.094      58.791     729.676
  O      670.970      59.430     730.604
  C      670.883      57.842     728.775
  O      672.054      58.507     728.263
  C      671.391      56.587     729.468
  O      670.350      55.652     729.677
  C      672.470      56.142     728.488
  O      671.862      55.474     727.364
  C      673.071      57.492     728.036
  N      678.189      57.244     728.076
  C      677.266      56.761     727.216
  N      675.926      56.846     727.279
  C      675.548      57.527     728.385
  C      676.364      58.054     729.361
  C      677.742      57.896     729.184
  N      678.681      58.386     730.069
  N      675.619      58.658     730.353
  C      674.370      58.504     729.963
  N      674.273      57.837     728.768
  O      669.635      58.405     732.467
  O      671.498      60.065     733.088
  H      671.186      56.080     727.002
  H      670.158      57.846     733.071
  H      677.666      56.234     726.344
  H      673.501      58.859     730.511
  H      673.322      57.506     726.971
  H      673.196      55.458     728.925
  H      671.852      56.844     730.433
  H      670.239      57.573     727.926
  H      669.606      59.549     729.052
  H      679.639      58.104     729.945
  H      678.347      58.747     730.962
  H      669.319      58.254     730.234
  P      670.329      54.855     731.064
  C      671.669      52.913     730.059
  O      671.663      53.955     731.016
  O      669.171      53.785     730.814
  O      670.168      55.719     732.278
  H      669.283      53.321     729.964
  H      672.645      52.421     730.094
  H      671.514      53.319     729.049
  H      670.894      52.182     730.287
  H      668.791      62.752     731.426
  H      670.077      62.029     730.489
  H      670.377      62.550     732.130

 3  4  5  6  7  8  9  10  11  12  22  25  29  30  31  32 0
 6-311+G(2d,p)
 ****
 33  36  37 0
 6-311+G(2d,p)
 ****
 1  2  13  14  15  16  17  18  19  20  21  23  24  26 0
 3-21G
 ****
 27  28  34  35  38  39  40  41  42  43  44  45  46  47  48 0
 3-21G
 ****


