%nproc=1
%NoSave
%Mem=1900MB
#P OB98/GEN NMR

erre ene a

0 1
  C      -48.239     901.712      69.125
  O      -47.396     901.894      70.256
  P      -47.693     900.991      71.554
  C      -46.352     902.456      73.235
  O      -46.435     901.216      72.530
  C      -45.057     902.546      74.019
  O      -44.951     901.415      74.919
  C      -43.788     902.508      73.175
  O      -43.493     903.777      72.609
  C      -42.751     902.104      74.212
  O      -42.335     903.267      74.954
  C      -43.533     901.149      75.115
  N      -40.052     897.466      74.979
  C      -39.927     898.793      75.349
  N      -38.701     899.191      75.763
  N      -40.915     899.658      75.301
  C      -42.083     899.112      74.922
  C      -42.344     897.806      74.527
  C      -41.228     896.879      74.520
  O      -41.268     895.712      74.158
  N      -43.660     897.627      74.219
  C      -44.218     898.804      74.449
  N      -43.298     899.744      74.839
  O      -47.485     899.506      71.016
  O      -49.042     901.178      72.166
  H      -41.868     903.855      74.333
  H      -47.997     898.875      71.561
  H      -39.270     896.846      75.051
  H      -45.277     899.012      74.328
  H      -43.332     901.331      76.173
  H      -41.850     901.668      73.765
  H      -37.949     898.550      75.930
  H      -43.856     901.729      72.401
  H      -38.600     900.156      76.068
  H      -45.092     903.459      74.634
  H      -47.202     902.528      73.932
  H      -46.421     903.277      72.515
  P      -43.526     903.878      71.000
  C      -41.142     904.860      71.394
  O      -42.347     904.877      70.620
  O      -44.858     904.709      70.714
  O      -43.523     902.548      70.307
  H      -45.206     904.489      69.821
  H      -40.900     903.834      71.694
  H      -41.273     905.490      72.265
  H      -40.334     905.246      70.777
  H      -47.931     902.371      68.341
  H      -49.251     901.929      69.396
  H      -48.169     900.699      68.788

 3  4  5  6  7  8  9  10  11  12  23  26  30  31  33  0
 6-311+G(2d,p)
 ****
 35  36  37  38 0
 6-311+G(2d,p)
 ****
 1  2  13  14  15  16  17  18  19  20  21  22  24  25  27  28  29 0
 3-21G
 ****
 32  34  39  40  41  42  43  44  45  46  47  48  49 0
 3-21G
 ****


