%nproc=1
%NoSave
%Mem=1900MB
#P OB98/GEN NMR

erre ene a

0 1
  C     -226.272     -16.127    -320.527
  O     -225.218     -15.249    -320.928
  P     -225.458     -13.676    -320.686
  C     -223.297     -13.892    -319.249
  O     -224.546     -13.238    -319.438
  C     -222.349     -13.016    -318.436
  O     -222.032     -11.802    -319.140
  C     -222.911     -12.559    -317.096
  O     -222.810     -13.574    -316.110
  C     -221.985     -11.395    -316.766
  O     -220.768     -11.890    -316.179
  C     -221.709     -10.792    -318.152
  N     -221.728      -6.203    -320.313
  C     -220.717      -7.139    -320.233
  N     -219.552      -6.820    -320.837
  N     -220.834      -8.289    -319.615
  C     -222.063      -8.485    -319.082
  C     -223.146      -7.636    -319.093
  C     -222.991      -6.356    -319.752
  O     -223.845      -5.481    -319.826
  N     -224.225      -8.192    -318.457
  C     -223.808      -9.385    -318.085
  N     -222.496      -9.605    -318.430
  O     -226.943     -13.630    -320.091
  O     -225.321     -12.845    -321.919
  H     -220.267     -11.112    -315.860
  H     -227.358     -12.767    -320.290
  H     -221.583      -5.335    -320.793
  H     -224.411     -10.122    -317.576
  H     -220.649     -10.538    -318.280
  H     -222.422     -10.698    -316.049
  H     -219.413      -5.986    -321.391
  H     -223.942     -12.199    -317.206
  H     -218.806      -7.508    -320.820
  H     -221.417     -13.577    -318.277
  H     -222.844     -14.114    -320.217
  H     -223.470     -14.849    -318.749
  P     -224.150     -13.960    -315.312
  C     -224.175     -16.551    -315.410
  O     -224.649     -15.340    -315.955
  O     -225.208     -12.878    -315.841
  O     -224.014     -13.933    -313.826
  H     -225.881     -12.709    -315.156
  H     -224.170     -16.520    -314.313
  H     -223.158     -16.746    -315.772
  H     -224.827     -17.368    -315.733
  H     -225.994     -17.138    -320.739
  H     -227.164     -15.883    -321.065
  H     -226.447     -16.018    -319.477

 3  4  5  6  7  8  9  10  11  12  23  26  30  31  33  0
 6-311+G(2d,p)
 ****
 35  36  37  38 0
 6-311+G(2d,p)
 ****
 1  2  13  14  15  16  17  18  19  20  21  22  24  25  27  28  29 0
 3-21G
 ****
 32  34  39  40  41  42  43  44  45  46  47  48  49 0
 3-21G
 ****


