%nproc=1
%NoSave
%Mem=1900MB
#P OB98/GEN NMR

erre ene a

0 1
  C      -81.475      53.588     137.732
  O      -82.875      53.374     137.820
  P      -83.643      52.460     136.744
  C      -83.392      52.061     134.215
  O      -82.997      52.855     135.328
  C      -83.031      52.769     132.909
  O      -83.775      54.008     132.842
  C      -81.561      53.171     132.754
  O      -80.716      52.143     132.263
  C      -81.684      54.269     131.698
  O      -81.836      53.676     130.393
  C      -82.976      54.978     132.113
  N      -81.310      59.822     132.205
  C      -81.466      58.935     131.190
  N      -81.897      57.654     131.251
  C      -82.230      57.325     132.512
  C      -82.131      58.124     133.644
  C      -81.645      59.432     133.456
  N      -81.511      60.340     134.487
  N      -82.545      57.430     134.769
  C      -82.898      56.245     134.312
  N      -82.732      56.135     132.957
  O      -85.128      52.526     136.823
  O      -83.073      50.988     136.998
  H      -82.691      53.204     130.393
  H      -83.658      50.322     136.582
  H      -81.200      59.300     130.200
  H      -83.273      55.434     134.925
  H      -83.572      55.309     131.251
  H      -80.800      54.917     131.657
  H      -81.165      53.607     133.680
  H      -83.350      52.136     132.070
  H      -84.477      51.919     134.257
  H      -81.279      61.291     134.240
  H      -81.910      60.104     135.385
  H      -82.913      51.076     134.276
  P      -79.231      52.056     132.883
  C      -77.158      53.650     132.765
  O      -78.429      53.298     132.260
  O      -78.575      50.724     132.739
  O      -79.461      52.493     134.413
  H      -79.727      53.419     134.540
  H      -76.718      54.407     132.107
  H      -76.494      52.786     132.791
  H      -77.258      54.075     133.770
  H      -81.160      54.220     138.536
  H      -81.244      54.057     136.798
  H      -80.966      52.649     137.796

 3  4  5  6  7  8  9  10  11  12  22  25  29  30  31  32 0
 6-311+G(2d,p)
 ****
 33  36  37 0
 6-311+G(2d,p)
 ****
 1  2  13  14  15  16  17  18  19  20  21  23  24  26 0
 3-21G
 ****
 27  28  34  35  38  39  40  41  42  43  44  45  46  47  48 0
 3-21G
 ****


