%nproc=1
%NoSave
%Mem=1900MB
#P OB98/GEN NMR

erre ene a

0 1
  C      -45.123      11.047      72.524
  O      -45.763      12.286      72.323
  H      -45.414      10.661      73.505
  H      -44.037      11.171      72.514
  H      -45.426      10.327      71.761
  P      -45.481      13.107      70.972
  C      -47.066      11.660      69.565
  O      -45.717      12.051      69.779
  C      -47.294      11.239      68.113
  O      -46.530      10.034      67.832
  C      -48.764      10.942      67.778
  O      -49.120      11.587      66.553
  C      -48.789       9.434      67.586
  O      -49.863       8.994      66.760
  C      -47.381       9.190      67.036
  N      -46.998       7.786      67.111
  C      -47.565       6.940      66.153
  O      -48.334       7.393      65.303
  N      -47.291       5.599      66.210
  C      -46.556       5.133      67.170
  N      -46.348       3.790      67.187
  C      -45.961       5.987      68.220
  C      -46.217       7.291      68.128
  O      -44.170      13.817      70.937
  O      -46.733      14.092      70.822
  H      -49.737       8.039      66.567
  H      -46.476      14.848      70.245
  H      -45.359       5.549      69.002
  H      -45.824       7.996      68.853
  H      -47.305       9.517      65.991
  H      -48.896       8.947      68.565
  H      -49.454      11.258      68.560
  H      -46.888      12.019      67.457
  H      -46.781       3.242      66.452
  H      -47.721      12.500      69.826
  H      -45.815       3.312      67.896
  H      -47.289      10.813      70.221
  P      -49.303      13.180      66.618
  C      -46.800      13.820      66.380
  O      -47.952      13.810      67.210
  O      -50.372      13.380      67.792
  O      -49.778      13.776      65.335
  H      -51.221      13.682      67.418
  H      -45.984      14.268      66.908
  H      -47.004      14.384      65.494
  H      -46.544      12.816      66.113

 6  7  8  9  10  11  12  13  14  15  16  26  30  31  32  33  35 0
 6-311+G(2d,p)
 ****
 37  38 0
 6-311+G(2d,p)
 ****
 1  2  3  4  5  17  18  19  20  21  22  23  24  25 0
 3-21G
 ****
 27  28  29  34  36  39  40  41  42  43  44  45  46 0
 3-21G
 ****


