%nproc=1
%NoSave
%Mem=1900MB
#P OB98/GEN NMR

erre ene a

0 1
  C       86.116    -161.799    -220.556
  O       85.401    -162.442    -219.494
  P       85.922    -163.904    -219.069
  C       83.638    -165.003    -219.637
  O       85.044    -164.994    -219.859
  C       83.082    -166.429    -219.571
  O       83.408    -167.126    -220.797
  C       83.623    -167.279    -218.415
  O       82.567    -168.115    -217.925
  C       84.641    -168.180    -219.089
  O       84.888    -169.368    -218.343
  C       83.962    -168.403    -220.437
  N       86.382    -172.418    -222.335
  C       85.425    -172.352    -221.340
  N       85.082    -173.521    -220.755
  N       84.854    -171.242    -220.957
  C       85.270    -170.155    -221.652
  C       86.203    -170.093    -222.663
  C       86.855    -171.327    -223.048
  O       87.750    -171.440    -223.886
  N       86.359    -168.809    -223.124
  C       85.531    -168.096    -222.387
  N       84.853    -168.866    -221.475
  O       85.437    -164.038    -217.550
  O       87.402    -164.072    -219.186
  H       84.071    -169.901    -218.372
  H       86.200    -164.226    -216.972
  H       86.805    -173.297    -222.578
  H       85.398    -167.026    -222.452
  H       83.134    -169.118    -220.353
  H       85.590    -167.641    -219.198
  H       85.435    -174.419    -221.047
  H       84.053    -166.700    -217.592
  H       84.349    -173.500    -220.056
  H       81.989    -166.366    -219.514
  H       83.141    -164.463    -220.445
  H       83.429    -164.474    -218.702
  P       81.881    -167.665    -216.544
  C       83.421    -169.241    -215.161
  O       82.983    -167.921    -215.408
  O       80.794    -168.811    -216.283
  O       81.275    -166.302    -216.578
  H       80.056    -168.461    -215.748
  H       83.086    -169.940    -215.932
  H       83.031    -169.568    -214.194
  H       84.513    -169.251    -215.126
  H       85.682    -160.840    -220.749
  H       86.060    -162.400    -221.439
  H       87.141    -161.676    -220.273

 3  4  5  6  7  8  9  10  11  12  23  26  30  31  33  0
 6-311+G(2d,p)
 ****
 35  36  37  38 0
 6-311+G(2d,p)
 ****
 1  2  13  14  15  16  17  18  19  20  21  22  24  25  27  28  29 0
 3-21G
 ****
 32  34  39  40  41  42  43  44  45  46  47  48  49 0
 3-21G
 ****


