%nproc=1
%NoSave
%Mem=1900MB
#P OB98/GEN NMR

erre ene a

0 1
  C      258.131     340.878      71.515
  O      259.543     340.807      71.279
  P      260.165     339.846      70.150
  C      261.010     337.947      71.656
  O      260.104     338.308      70.622
  C      261.950     336.800      71.267
  O      261.195     335.624      70.853
  C      262.916     337.114      70.113
  O      264.097     336.345      70.371
  C      262.176     336.572      68.911
  O      263.009     336.350      67.780
  C      261.575     335.303      69.504
  N      260.029     333.216      65.082
  C      261.258     333.399      65.609
  N      261.588     333.933      66.805
  C      260.493     334.247      67.510
  C      259.170     334.109      67.111
  C      258.950     333.575      65.826
  N      257.701     333.429      65.265
  N      258.308     334.576      68.090
  C      259.101     334.996      69.053
  N      260.428     334.818      68.755
  O      261.507     340.278      69.653
  O      259.099     339.904      68.955
  H      262.454     336.000      67.057
  H      259.573     340.027      68.108
  H      262.088     333.090      64.980
  H      258.774     335.457      69.976
  H      262.313     334.494      69.547
  H      261.397     337.291      68.611
  H      263.156     338.180      70.027
  H      262.514     336.508      72.163
  H      260.433     337.654      72.543
  H      257.653     333.129      64.305
  H      256.902     333.808      65.747
  H      261.606     338.830      71.926
  P      265.363     336.967      71.127
  C      266.622     337.535      68.973
  O      266.006     338.055      70.142
  O      266.329     335.959      71.669
  O      264.736     337.857      72.302
  H      265.405     338.028      72.985
  H      267.597     337.107      69.227
  H      266.767     338.354      68.254
  H      265.998     336.771      68.511
  H      257.936     341.574      72.304
  H      257.767     339.911      71.794
  H      257.636     341.202      70.623

 3  4  5  6  7  8  9  10  11  12  22  25  29  30  31  32 0
 6-311+G(2d,p)
 ****
 33  36  37 0
 6-311+G(2d,p)
 ****
 1  2  13  14  15  16  17  18  19  20  21  23  24  26 0
 3-21G
 ****
 27  28  34  35  38  39  40  41  42  43  44  45  46  47  48 0
 3-21G
 ****


