%nproc=1
%NoSave
%Mem=1900MB
#P OB98/GEN NMR

erre ene a

0 1
  C     -118.563      71.619    -219.150
  O     -118.816      72.737    -220.004
  P     -119.465      72.418    -221.438
  C     -120.854      74.599    -221.263
  O     -120.010      73.789    -222.069
  C     -120.059      75.649    -220.477
  O     -119.313      76.515    -221.374
  C     -120.934      76.548    -219.602
  O     -120.179      76.874    -218.432
  C     -121.088      77.800    -220.445
  O     -121.452      78.921    -219.643
  C     -119.696      77.877    -221.094
  N     -119.667      78.706    -222.297
  C     -118.727      79.737    -222.337
  O     -118.012      79.963    -221.357
  N     -118.643      80.515    -223.463
  C     -119.465      80.314    -224.444
  N     -119.334      81.122    -225.533
  C     -120.513      79.278    -224.424
  C     -120.552      78.517    -223.331
  O     -120.797      71.611    -221.069
  O     -118.574      71.619    -222.333
  H     -120.734      79.076    -218.992
  H     -120.849      70.794    -221.598
  H     -121.191      79.161    -225.257
  H     -121.283      77.728    -223.223
  H     -118.964      78.289    -220.387
  H     -121.859      77.650    -221.209
  H     -121.883      76.089    -219.314
  H     -119.330      75.122    -219.850
  H     -118.597      81.818    -225.514
  H     -121.408      73.972    -220.560
  H     -119.920      81.056    -226.352
  H     -121.606      75.074    -221.902
  P     -120.644      76.252    -217.031
  C     -118.337      75.880    -215.965
  O     -119.500      76.684    -215.991
  O     -120.307      74.697    -217.242
  O     -122.057      76.447    -216.598
  H     -120.613      74.187    -216.471
  H     -117.600      76.354    -215.313
  H     -117.913      75.788    -216.970
  H     -118.575      74.891    -215.564
  H     -118.133      71.962    -218.232
  H     -117.884      70.948    -219.633
  H     -119.482      71.111    -218.946

 3  4  5  6  7  8  9  10  11  12  13  21  23  27  28  29  30  32 0
 6-311+G(2d,p)
 ****
 34  35 0
 6-311+G(2d,p)
 ****
 1  2  14  15  16  17  18  19  20  22  24  25  26 0
 3-21G
 ****
 31  33  36  37  38  39  40  41  42  43  44  45  46 0
 3-21G
 ****


