%nproc=1
%NoSave
%Mem=1900MB
#P OB98/GEN NMR

erre ene a

0 1
  C     -556.563    -621.924     541.441
  O     -557.010    -622.520     540.221
  P     -558.533    -622.310     539.786
  C     -557.838    -621.888     537.246
  O     -558.679    -622.528     538.198
  C     -557.103    -622.962     536.436
  O     -556.412    -623.885     537.311
  C     -558.029    -623.803     535.552
  O     -558.263    -623.180     534.292
  C     -557.275    -625.117     535.463
  O     -556.202    -624.999     534.504
  C     -556.724    -625.242     536.892
  N     -557.580    -625.878     537.923
  C     -557.005    -626.632     538.943
  O     -555.800    -626.805     539.083
  N     -557.878    -627.169     539.867
  C     -559.219    -626.911     539.951
  O     -559.941    -627.361     540.828
  C     -559.761    -625.985     538.927
  C     -558.928    -625.540     537.965
  O     -558.773    -620.748     539.977
  O     -559.506    -623.131     540.564
  H     -555.518    -624.450     534.919
  H     -559.424    -620.582     540.676
  H     -557.497    -627.769     540.562
  H     -560.795    -625.724     538.981
  H     -559.314    -624.851     537.216
  H     -555.779    -625.808     536.889
  H     -557.917    -625.909     535.098
  H     -558.978    -623.992     536.080
  H     -556.351    -622.462     535.819
  H     -557.130    -621.247     537.759
  H     -558.456    -621.255     536.593
  P     -559.757    -622.795     533.854
  C     -558.963    -620.495     533.052
  O     -559.601    -621.707     532.695
  O     -560.695    -622.441     534.975
  O     -560.257    -624.097     533.045
  H     -560.782    -624.693     533.646
  H     -558.787    -619.907     532.151
  H     -558.000    -620.701     533.539
  H     -559.596    -619.910     533.729
  H     -555.529    -622.153     541.592
  H     -557.137    -622.310     542.258
  H     -556.689    -620.863     541.387

 3  4  5  6  7  8  9  10  11  12  13  23  28  29  30  31  32 0
 6-311+G(2d,p)
 ****
 33  34 0
 6-311+G(2d,p)
 ****
 1  2  14  15  16  17  18  19  20  21  22  24  25  26  27 0
 3-21G
 ****
 35  36  37  38  39  40  41  42  43  44  45 0
 3-21G
 ****


