%nproc=1
%NoSave
%Mem=1900MB
#P OB98/GEN NMR

erre ene a

0 1
  C      286.476      21.633      76.992
  O      287.821      21.489      76.580
  H      286.046      20.640      77.141
  H      285.904      22.155      76.218
  H      286.424      22.190      77.931
  P      288.696      22.826      76.466
  C      288.935      24.753      74.694
  O      288.294      23.544      75.085
  C      289.175      24.752      73.187
  O      290.110      23.722      72.808
  C      287.936      24.437      72.365
  O      286.996      25.491      72.369
  C      288.565      24.177      71.004
  O      288.888      25.406      70.339
  C      289.856      23.418      71.408
  N      289.757      21.984      71.175
  C      289.994      21.561      69.861
  O      290.282      22.384      68.987
  N      289.876      20.226      69.567
  C      289.570      19.381      70.503
  N      289.459      18.074      70.143
  C      289.337      19.781      71.905
  C      289.439      21.082      72.166
  O      290.161      22.264      76.159
  O      288.619      23.741      77.647
  H      288.057      25.922      70.296
  H      290.195      21.658      75.400
  H      289.093      19.041      72.657
  H      289.282      21.461      73.168
  H      290.717      23.798      70.841
  H      287.898      23.621      70.342
  H      287.481      23.501      72.709
  H      289.607      25.726      72.911
  H      289.606      17.839      69.169
  H      289.876      24.889      75.237
  H      289.192      17.333      70.779
  H      288.274      25.581      74.970
  P      285.424      25.178      72.454
  C      283.861      23.532      71.235
  O      285.074      24.279      71.169
  O      284.549      26.377      72.631
  O      285.324      24.116      73.649
  H      285.822      23.293      73.506
  H      283.735      22.976      70.330
  H      283.036      24.202      71.360
  H      283.902      22.858      72.065

 6  7  8  9  10  11  12  13  14  15  16  26  30  31  32  33  35 0
 6-311+G(2d,p)
 ****
 37  38 0
 6-311+G(2d,p)
 ****
 1  2  3  4  5  17  18  19  20  21  22  23  24  25 0
 3-21G
 ****
 27  28  29  34  36  39  40  41  42  43  44  45  46 0
 3-21G
 ****


