%nproc=1
%NoSave
%Mem=1900MB
#P OB98/GEN NMR

erre ene a

0 1
  C       10.082     741.521     219.322
  O       11.105     741.691     218.362
  H        9.126     741.423     218.802
  H       10.039     742.387     219.985
  H       10.262     740.615     219.906
  P       12.583     741.965     218.932
  C       13.232     739.521     218.290
  O       13.496     740.909     218.137
  C       13.187     738.846     216.924
  O       12.004     739.247     216.193
  C       14.360     739.188     216.003
  O       15.549     738.497     216.330
  C       13.788     738.742     214.674
  O       13.813     737.305     214.597
  C       12.345     739.271     214.780
  N       12.188     740.626     214.237
  C       12.666     740.840     212.939
  O       13.191     739.926     212.302
  N       12.571     742.102     212.399
  C       12.029     743.061     213.087
  N       11.968     744.286     212.501
  C       11.502     742.874     214.449
  C       11.612     741.649     214.956
  O       12.534     741.344     220.407
  O       13.057     743.378     218.870
  H       13.413     736.974     215.422
  H       13.441     741.328     220.796
  H       11.071     743.705     214.986
  H       11.243     741.436     215.955
  H       11.641     738.606     214.263
  H       14.346     739.111     213.815
  H       14.537     740.271     215.968
  H       13.118     737.763     217.087
  H       12.392     744.391     211.588
  H       12.268     739.409     218.795
  H       11.702     745.124     213.006
  H       14.014     739.057     218.897
  P       16.910     739.350     216.379
  C       16.962     739.175     218.979
  O       17.650     738.969     217.748
  O       16.394     740.840     216.638
  O       17.755     739.255     215.147
  H       16.965     741.491     216.188
  H       17.588     738.873     219.792
  H       16.063     738.595     218.987
  H       16.718     740.212     219.082

 6  7  8  9  10  11  12  13  14  15  16  26  30  31  32  33  35 0
 6-311+G(2d,p)
 ****
 37  38 0
 6-311+G(2d,p)
 ****
 1  2  3  4  5  17  18  19  20  21  22  23  24  25 0
 3-21G
 ****
 27  28  29  34  36  39  40  41  42  43  44  45  46 0
 3-21G
 ****


