%nproc=1
%NoSave
%Mem=1900MB
#P OB98/GEN NMR

erre ene a

0 1
  C      944.249     150.773    -218.513
  O      942.836     150.739    -218.476
  H      944.568     150.884    -219.552
  H      944.667     149.841    -218.118
  H      944.628     151.623    -217.939
  P      942.115     150.503    -217.064
  C      941.633     148.333    -215.734
  O      942.538     149.033    -216.580
  C      941.935     146.833    -215.747
  O      941.523     146.255    -217.003
  C      943.406     146.488    -215.590
  O      943.821     146.656    -214.251
  C      943.416     145.053    -216.103
  O      942.923     144.150    -215.102
  C      942.421     145.153    -217.288
  N      943.076     145.340    -218.579
  C      942.742     144.412    -219.573
  O      941.964     143.497    -219.334
  N      943.329     144.550    -220.811
  C      944.131     145.536    -221.050
  N      944.677     145.613    -222.297
  C      944.473     146.565    -220.043
  C      943.926     146.395    -218.842
  O      940.642     150.766    -217.017
  O      942.917     151.458    -216.055
  H      942.782     143.295    -215.553
  H      942.469     152.318    -215.973
  H      945.141     147.369    -220.286
  H      944.121     147.103    -218.038
  H      941.803     144.244    -217.343
  H      944.411     144.719    -216.383
  H      944.016     147.102    -216.273
  H      941.335     146.361    -214.956
  H      944.392     144.896    -222.961
  H      940.628     148.522    -216.115
  H      945.175     146.420    -222.646
  H      941.694     148.721    -214.711
  P      945.358     146.918    -213.871
  C      947.062     145.784    -212.298
  O      945.785     145.679    -212.937
  O      945.652     148.267    -213.307
  O      946.144     146.604    -215.233
  H      946.051     147.358    -215.863
  H      947.238     144.909    -211.707
  H      947.076     146.649    -211.668
  H      947.827     145.872    -213.041

 6  7  8  9  10  11  12  13  14  15  16  26  30  31  32  33  35 0
 6-311+G(2d,p)
 ****
 37  38 0
 6-311+G(2d,p)
 ****
 1  2  3  4  5  17  18  19  20  21  22  23  24  25 0
 3-21G
 ****
 27  28  29  34  36  39  40  41  42  43  44  45  46 0
 3-21G
 ****


