%nproc=1
%NoSave
%Mem=1900MB
#P OB98/GEN NMR

erre ene a

0 1
  C      759.407    -685.714     317.840
  O      760.496    -685.160     317.126
  P      761.713    -686.140     316.749
  C      763.580    -687.317     318.188
  O      762.396    -686.533     318.146
  C      764.522    -686.811     319.276
  O      763.842    -686.841     320.566
  C      765.787    -687.631     319.470
  O      766.743    -687.371     318.463
  C      766.208    -687.228     320.874
  O      766.890    -685.952     320.835
  C      764.838    -687.064     321.575
  N      764.491    -688.217     322.416
  C      764.932    -688.180     323.734
  O      765.583    -687.249     324.199
  N      764.613    -689.271     324.502
  C      763.975    -690.400     324.060
  O      763.750    -691.368     324.785
  C      763.556    -690.398     322.664
  C      763.834    -689.315     321.907
  O      762.727    -685.101     316.074
  O      761.307    -687.279     315.881
  H      762.597    -684.183     316.422
  H      767.730    -686.101     320.365
  H      764.895    -689.250     325.467
  H      763.054    -691.271     322.278
  H      763.546    -689.303     320.860
  H      764.854    -686.170     322.208
  H      766.878    -687.949     321.344
  H      765.530    -688.707     319.466
  H      764.770    -685.765     319.055
  H      764.075    -687.255     317.215
  H      763.306    -688.368     318.367
  P      767.965    -688.422     318.332
  C      769.784    -689.281     320.005
  O      768.577    -688.573     319.806
  O      769.051    -687.556     317.539
  O      767.593    -689.704     317.656
  H      769.095    -686.634     317.862
  H      770.215    -688.980     320.966
  H      770.505    -689.071     319.213
  H      769.577    -690.354     320.025
  H      758.676    -684.954     318.021
  H      759.754    -686.105     318.774
  H      758.967    -686.502     317.265

 3  4  5  6  7  8  9  10  11  12  13  24  28  29  30  31  32 0
 6-311+G(2d,p)
 ****
 33  34 0
 6-311+G(2d,p)
 ****
 1  2  14  15  16  17  18  19  20  21  22  23  25  26  27 0
 3-21G
 ****
 35  36  37  38  39  40  41  42  43  44  45 0
 3-21G
 ****


