%nproc=1
%NoSave
%Mem=1900MB
#P OB98/GEN NMR

erre ene a

0 1
  C      -91.929    -273.352     200.362
  O      -91.767    -272.702     201.611
  H      -92.937    -273.151     199.987
  H      -91.806    -274.433     200.483
  H      -91.201    -272.972     199.640
  P      -90.338    -272.864     202.317
  C      -89.159    -274.784     203.630
  O      -90.314    -274.347     202.931
  C      -89.505    -275.961     204.553
  O      -90.162    -275.440     205.747
  C      -90.473    -276.982     203.921
  O      -90.205    -278.266     204.514
  C      -91.818    -276.469     204.409
  O      -92.826    -277.440     204.226
  C      -91.445    -276.100     205.846
  N      -96.236    -275.708     207.591
  C      -95.556    -276.741     207.057
  N      -94.277    -276.776     206.626
  C      -93.684    -275.584     206.808
  C      -94.245    -274.438     207.349
  C      -95.590    -274.524     207.749
  N      -96.289    -273.465     208.288
  N      -93.320    -273.408     207.380
  C      -92.224    -273.924     206.864
  N      -92.395    -275.233     206.500
  O      -90.457    -271.918     203.607
  O      -89.158    -272.512     201.475
  H      -93.669    -277.149     204.639
  H      -90.075    -271.041     203.412
  H      -96.117    -277.675     206.957
  H      -91.282    -273.398     206.722
  H      -91.317    -276.987     206.476
  H      -92.127    -275.584     203.848
  H      -90.378    -277.056     202.838
  H      -88.575    -276.440     204.884
  H      -88.775    -273.947     204.222
  H      -88.394    -275.099     202.911
  H      -97.258    -273.607     208.533
  H      -95.829    -272.576     208.395
  P      -89.948    -279.531     203.552
  C      -91.422    -281.216     202.189
  O      -91.360    -280.038     202.982
  O      -89.587    -280.688     204.608
  O      -88.855    -279.374     202.546
  H      -89.005    -281.346     204.183
  H      -92.436    -281.399     201.900
  H      -91.057    -282.047     202.756
  H      -90.819    -281.089     201.314

 6  7  8  9  10  11  12  13  14  15  25  28  32  33  34  35 0
 6-311+G(2d,p)
 ****
 36  37  40 0
 6-311+G(2d,p)
 ****
 1  2  3  4  5  16  17  18  19  20  21  22  23  24 0
 3-21G
 ****
 26  27  29  30  31  38  39 41  42  43  44  45  46  47  48 0
 3-21G
 ****


