%nproc=1
%NoSave
%Mem=1900MB
#P OB98/GEN NMR

erre ene a

0 1
  C      384.423    -219.509     102.252
  O      383.520    -219.716     101.185
  H      384.978    -218.585     102.066
  H      385.134    -220.335     102.326
  H      383.876    -219.403     103.192
  P      382.692    -221.086     101.130
  C      380.874    -220.400      99.438
  O      382.049    -221.170      99.661
  C      381.233    -218.990      98.966
  O      382.147    -219.098      97.840
  C      380.021    -218.166      98.519
  O      380.227    -216.809      98.917
  C      380.073    -218.292      97.010
  O      379.402    -217.220      96.375
  C      381.579    -218.366      96.739
  N      381.855    -219.008      95.454
  C      382.112    -218.158      94.373
  O      382.116    -216.936      94.532
  N      382.295    -218.702      93.129
  C      382.175    -219.980      92.963
  N      382.328    -220.450      91.695
  C      381.875    -220.913      94.067
  C      381.730    -220.367      95.272
  O      381.731    -221.321     102.246
  O      383.830    -222.212     101.090
  H      379.636    -217.209      95.421
  H      384.053    -222.494     101.997
  H      381.778    -221.972      93.873
  H      381.498    -220.973      96.142
  H      382.023    -217.363      96.734
  H      379.586    -219.226      96.699
  H      379.075    -218.538      98.928
  H      381.779    -218.482      99.768
  H      382.509    -219.770      90.966
  H      380.327    -220.341     100.385
  H      382.216    -221.418      91.435
  H      380.242    -220.895      98.695
  P      379.855    -216.329     100.402
  C      381.859    -214.837     100.958
  O      380.469    -214.864     100.648
  O      380.165    -217.319     101.476
  O      378.276    -216.055     100.331
  H      377.880    -216.225     101.207
  H      382.172    -213.824     101.103
  H      382.413    -215.269     100.151
  H      382.036    -215.397     101.852

 6  7  8  9  10  11  12  13  14  15  16  26  30  31  32  33  35 0
 6-311+G(2d,p)
 ****
 37  38 0
 6-311+G(2d,p)
 ****
 1  2  3  4  5  17  18  19  20  21  22  23  24  25 0
 3-21G
 ****
 27  28  29  34  36  39  40  41  42  43  44  45  46 0
 3-21G
 ****


