%nproc=1
%NoSave
%Mem=1900MB
#P OB98/GEN NMR

erre ene a

0 1
  C     -899.174    1076.091    -316.978
  O     -898.194    1077.121    -317.113
  P     -896.854    1077.085    -316.275
  C     -895.904    1078.457    -318.230
  O     -895.954    1078.302    -316.819
  C     -894.984    1079.640    -318.592
  O     -893.624    1079.431    -318.085
  C     -894.794    1079.828    -320.083
  O     -895.934    1080.225    -320.858
  C     -893.574    1080.765    -320.118
  O     -893.964    1082.110    -319.894
  C     -892.744    1080.222    -318.925
  N     -891.604    1079.432    -319.387
  C     -890.524    1080.176    -319.861
  O     -890.514    1081.405    -319.915
  N     -889.454    1079.462    -320.322
  C     -889.374    1078.079    -320.403
  O     -888.414    1077.497    -320.860
  C     -890.554    1077.358    -319.869
  C     -891.604    1078.042    -319.405
  O     -896.134    1075.760    -316.230
  O     -897.294    1077.626    -314.832
  H     -893.174    1082.679    -319.997
  H     -897.674    1078.521    -314.831
  H     -888.664    1079.978    -320.690
  H     -890.514    1076.278    -319.895
  H     -892.464    1077.535    -319.017
  H     -892.394    1081.043    -318.301
  H     -893.074    1080.731    -321.087
  H     -894.484    1078.866    -320.533
  H     -895.364    1080.536    -318.108
  H     -896.914    1078.680    -318.599
  H     -895.554    1077.518    -318.687
  P     -896.054    1079.986    -322.421
  C     -898.654    1079.852    -322.454
  O     -897.494    1080.529    -322.906
  O     -895.614    1078.643    -322.924
  O     -895.074    1081.108    -323.009
  H     -894.684    1080.806    -323.846
  H     -899.514    1080.324    -322.922
  H     -898.724    1079.951    -321.344
  H     -898.634    1078.791    -322.730
  H     -900.000    1076.298    -317.626
  H     -899.515    1076.054    -315.965
  H     -898.740    1075.149    -317.243

 3  4  5  6  7  8  9  10  11  12  13  23  28  29  30  31  32 0
 6-311+G(2d,p)
 ****
 33  34 0
 6-311+G(2d,p)
 ****
 1  2  14  15  16  17  18  19  20  21  22  24  25  26  27 0
 3-21G
 ****
 35  36  37  38  39  40  41  42  43  44  45 0
 3-21G
 ****


