%nproc=1
%NoSave
%Mem=1900MB
#P OB98/GEN NMR

erre ene a

0 1
  C     -303.726    -232.826     150.563
  O     -304.009    -234.200     150.262
  P     -303.494    -234.889     148.907
  C     -304.037    -234.950     146.396
  O     -304.278    -234.291     147.635
  C     -304.602    -234.189     145.185
  O     -306.050    -234.308     145.126
  C     -304.282    -232.687     145.158
  O     -304.191    -232.325     143.778
  C     -305.530    -232.084     145.784
  O     -305.692    -230.703     145.507
  C     -306.606    -232.982     145.178
  N     -311.393    -231.154     145.414
  C     -310.469    -231.139     144.420
  N     -309.237    -231.679     144.418
  C     -308.989    -232.322     145.576
  C     -309.833    -232.433     146.670
  C     -311.082    -231.801     146.565
  N     -312.011    -231.773     147.584
  N     -309.227    -233.145     147.686
  C     -308.029    -233.446     147.216
  N     -307.843    -232.974     145.940
  O     -303.473    -236.385     148.952
  O     -302.006    -234.330     148.718
  H     -306.574    -230.433     145.819
  H     -301.413    -235.070     148.488
  H     -310.763    -230.618     143.515
  H     -307.260    -233.980     147.758
  H     -306.842    -232.676     144.151
  H     -305.474    -232.200     146.878
  H     -303.366    -232.426     145.694
  H     -304.212    -234.677     144.282
  H     -304.490    -235.946     146.437
  H     -312.838    -231.218     147.447
  H     -311.749    -232.136     148.491
  H     -302.955    -235.085     146.272
  P     -302.896    -232.664     142.904
  C     -300.606    -231.592     142.490
  O     -301.847    -231.481     143.162
  O     -303.165    -232.955     141.462
  O     -302.225    -233.918     143.640
  H     -301.620    -234.370     143.026
  H     -299.979    -232.336     142.986
  H     -300.099    -230.624     142.506
  H     -300.755    -231.889     141.440
  H     -304.159    -232.571     151.508
  H     -304.142    -232.201     149.800
  H     -302.667    -232.681     150.605

 3  4  5  6  7  8  9  10  11  12  22  25  29  30  31  32 0
 6-311+G(2d,p)
 ****
 33  36  37 0
 6-311+G(2d,p)
 ****
 1  2  13  14  15  16  17  18  19  20  21  23  24  26 0
 3-21G
 ****
 27  28  34  35  38  39  40  41  42  43  44  45  46  47  48 0
 3-21G
 ****


