%nproc=1
%NoSave
%Mem=1900MB
#P OB98/GEN NMR

erre ene a

0 1
  C     -468.714     116.715     126.674
  O     -467.563     117.523     126.493
  P     -466.155     116.801     126.238
  C     -465.015     118.078     128.198
  O     -465.006     117.764     126.815
  C     -464.011     119.195     128.499
  O     -462.686     118.793     128.034
  C     -464.343     120.533     127.823
  O     -463.915     121.583     128.703
  C     -463.458     120.508     126.593
  O     -463.244     121.793     126.029
  C     -462.203     119.844     127.173
  N     -461.302     119.329     126.145
  C     -460.321     120.190     125.664
  O     -460.172     121.351     126.051
  N     -459.536     119.695     124.658
  C     -459.687     118.491     124.038
  O     -459.021     118.155     123.064
  C     -460.739     117.622     124.584
  C     -461.485     118.072     125.597
  O     -465.975     116.900     124.654
  O     -466.082     115.392     126.724
  H     -462.643     121.684     125.273
  H     -466.216     116.054     124.228
  H     -458.810     120.302     124.304
  H     -460.871     116.648     124.128
  H     -462.283     117.460     126.006
  H     -461.663     120.556     127.810
  H     -463.923     119.880     125.821
  H     -465.406     120.650     127.583
  H     -463.945     119.326     129.589
  H     -464.742     117.188     128.769
  H     -466.026     118.376     128.503
  P     -465.026     122.609     129.248
  C     -463.195     124.483     129.185
  O     -464.231     123.843     129.902
  O     -465.585     121.799     130.513
  O     -466.073     122.950     128.242
  H     -464.876     121.386     131.037
  H     -463.403     124.502     128.109
  H     -462.252     123.956     129.361
  H     -463.102     125.509     129.542
  H     -469.568     117.341     126.832
  H     -468.574     116.080     127.524
  H     -468.869     116.114     125.802

 3  4  5  6  7  8  9  10  11  12  13  23  28  29  30  31  32 0
 6-311+G(2d,p)
 ****
 33  34 0
 6-311+G(2d,p)
 ****
 1  2  14  15  16  17  18  19  20  21  22  24  25  26 0
 3-21G
 ****
 27  35  36  37  38  39  40  41  42  43  44  45 0
 3-21G
 ****


