%nproc=1
%NoSave
%Mem=1900MB
#P OB98/GEN NMR

erre ene a

0 1
  C      402.693    -891.195     855.182
  O      404.036    -891.365     855.590
  H      402.217    -890.465     855.836
  H      402.146    -892.145     855.244
  H      402.655    -890.825     854.148
  P      404.966    -892.285     854.660
  C      405.352    -894.095     856.519
  O      404.885    -893.795     855.206
  C      405.040    -895.555     856.871
  O      403.617    -895.745     857.059
  C      405.396    -896.535     855.760
  O      406.788    -896.705     855.638
  C      404.669    -897.765     856.262
  O      405.393    -898.425     857.307
  C      403.354    -897.155     856.812
  N      402.217    -897.335     855.916
  C      401.622    -898.605     855.974
  O      402.043    -899.475     856.733
  N      400.561    -898.865     855.122
  C      400.143    -897.945     854.309
  N      399.111    -898.275     853.500
  C      400.729    -896.595     854.249
  C      401.761    -896.365     855.061
  O      406.446    -891.825     855.082
  O      404.686    -892.175     853.187
  H      406.173    -898.865     856.876
  H      406.614    -891.885     856.043
  H      400.334    -895.845     853.553
  H      402.262    -895.385     855.085
  H      403.103    -897.595     857.796
  H      404.517    -898.495     855.463
  H      404.927    -896.205     854.824
  H      405.560    -895.785     857.805
  H      398.734    -899.215     853.541
  H      404.912    -893.415     857.265
  H      398.714    -897.635     852.790
  H      406.439    -893.925     856.545
  P      407.384    -897.615     854.438
  C      408.921    -899.015     855.966
  O      407.771    -899.025     855.099
  O      408.478    -896.975     853.638
  O      406.076    -897.985     853.586
  H      405.390    -898.465     854.078
  H      409.087    -900.000     856.349
  H      408.749    -898.340     856.779
  H      409.781    -898.697     855.414

 6  7  8  9  10  11  12  13  14  15  16  26  30  31  32  33  35 0
 6-311+G(2d,p)
 ****
 37  38 0
 6-311+G(2d,p)
 ****
 1  2  3  4  5  17  18  19  20  21  22  23  24  25 0
 3-21G
 ****
 27  28  29  34  36  39  40  41  42  43  44  45  46 0
 3-21G
 ****


