%nproc=1
%NoSave
%Mem=1900MB
#P OB98/GEN NMR

erre ene a

0 1
  C      113.903     -97.465      67.959
  O      113.999     -97.999      69.262
  H      113.789     -96.379      68.033
  H      113.026     -97.872      67.449
  H      114.804     -97.682      67.380
  P      114.355     -99.551      69.437
  C      116.212    -100.792      70.731
  O      115.359     -99.659      70.680
  C      117.567    -100.426      71.350
  O      118.354     -99.706      70.353
  C      117.469     -99.517      72.592
  O      118.595     -99.826      73.427
  C      117.612     -98.147      71.955
  O      117.827     -97.129      72.899
  C      118.738     -98.451      70.957
  N      118.958     -97.436      69.935
  C      119.904     -96.448      70.200
  O      120.569     -96.374      71.233
  N      120.074     -95.509      69.216
  C      119.419     -95.470      68.019
  O      119.636     -94.622      67.163
  C      118.429     -96.535      67.801
  C      118.250     -97.456      68.750
  O      114.802    -100.257      68.200
  O      113.003    -100.184      70.018
  H      112.523    -100.644      69.303
  H      118.664     -97.310      73.380
  H      120.757     -94.789      69.388
  H      117.882     -96.529      66.868
  H      117.533     -98.259      68.613
  H      119.674     -98.629      71.495
  H      116.689     -97.879      71.434
  H      116.544     -99.661      73.158
  H      118.113    -101.350      71.579
  H      116.361    -101.154      69.708
  H      115.731    -101.579      71.320
  P      118.508    -100.792      74.706
  C      120.112    -102.564      75.699
  O      119.991    -101.309      75.042
  O      117.506    -101.893      74.567
  O      118.146     -99.835      75.937
  H      117.681    -100.348      76.623
  H      121.147    -102.784      75.860
  H      119.676    -103.329      75.091
  H      119.605    -102.524      76.640

 6  7  8  9  10  11  12  13  14  15  16  27  31  32  33  34  35 0
 6-311+G(2d,p)
 ****
 36  37 0
 6-311+G(2d,p)
 ****
 1  2  3  4  5  17  18  19  20  21  22  23  24  25 0
 3-21G
 ****
 26  28  29  30  38  39  40  41  42  43  44  45 0
 3-21G
 ****


