%nproc=1
%NoSave
%Mem=1900MB
#P OB98/GEN NMR

erre ene a

0 1
  C     -127.798    1592.383    -802.947
  O     -128.967    1591.625    -803.245
  P     -130.042    1591.340    -802.070
  C     -131.952    1592.913    -802.759
  O     -130.901    1592.663    -801.835
  C     -132.528    1594.322    -802.612
  O     -132.990    1594.542    -801.244
  C     -131.584    1595.456    -802.963
  O     -132.366    1596.502    -803.591
  C     -131.080    1595.897    -801.624
  O     -130.504    1597.195    -801.645
  C     -132.376    1595.750    -800.788
  N     -132.108    1595.706    -799.339
  C     -132.344    1596.855    -798.621
  O     -132.640    1597.907    -799.215
  N     -132.214    1596.821    -797.225
  C     -131.736    1595.750    -796.679
  N     -131.604    1595.743    -795.324
  C     -131.317    1594.550    -797.452
  C     -131.547    1594.598    -798.763
  O     -129.461    1590.701    -800.847
  O     -131.093    1590.353    -802.794
  H     -129.726    1597.188    -802.258
  H     -131.419    1589.718    -802.136
  H     -130.837    1593.709    -796.958
  H     -131.296    1593.768    -799.395
  H     -133.054    1596.589    -800.992
  H     -130.314    1595.203    -801.246
  H     -130.769    1595.170    -803.656
  H     -133.447    1594.387    -803.246
  H     -131.877    1596.583    -794.821
  H     -132.728    1592.168    -802.621
  H     -131.301    1594.911    -794.797
  H     -131.570    1592.747    -803.775
  P     -132.299    1596.666    -805.178
  C     -134.558    1595.645    -805.911
  O     -133.160    1595.491    -805.839
  O     -130.785    1596.203    -805.497
  O     -132.513    1598.074    -805.706
  H     -130.503    1596.646    -806.320
  H     -134.931    1594.889    -806.635
  H     -134.842    1596.632    -806.259
  H     -135.013    1595.435    -804.961
  H     -127.199    1592.477    -803.829
  H     -127.235    1591.886    -802.185
  H     -128.082    1593.356    -802.603

 3  4  5  6  7  8  9  10  11  12  13  23  27  28  29  30  32 0
 6-311+G(2d,p)
 ****
 34  35 0
 6-311+G(2d,p)
 ****
 1  2  14  15  16  17  18  19  20  21  22  24  25  26 0
 3-21G
 ****
 31  33  36  37  38  39  40  41  42  43  44  45  46 0
 3-21G
 ****


