%nproc=1
%NoSave
%Mem=1900MB
#P OB98/GEN NMR

erre ene a

0 1
  C     -894.310     660.294    -889.530
  O     -894.940     659.445    -890.460
  P     -896.480     659.699    -890.880
  C     -895.820     659.835    -893.380
  O     -896.430     660.517    -892.260
  C     -896.940     659.363    -894.350
  O     -897.750     660.478    -894.770
  C     -896.420     658.753    -895.640
  O     -895.700     657.537    -895.530
  C     -897.660     658.765    -896.490
  O     -898.510     657.638    -896.200
  C     -898.340     660.086    -896.070
  N     -898.180     661.152    -897.050
  C     -899.100     661.126    -898.110
  O     -900.000     660.302    -898.210
  N     -898.940     662.095    -899.070
  C     -897.950     663.026    -899.080
  O     -897.830     663.851    -900.000
  C     -896.990     662.994    -897.970
  C     -897.140     662.078    -897.030
  O     -897.330     660.306    -889.820
  O     -896.950     658.249    -891.360
  H     -899.220     657.630    -896.850
  H     -896.460     657.870    -892.100
  H     -899.590     662.089    -899.840
  H     -896.190     663.737    -897.950
  H     -896.460     662.011    -896.190
  H     -899.410     659.932    -895.880
  H     -897.430     658.710    -897.580
  H     -895.710     659.481    -896.070
  H     -897.600     658.665    -893.800
  H     -895.290     658.973    -893.020
  H     -895.140     660.515    -893.880
  P     -894.170     657.376    -896.020
  C     -893.060     656.476    -893.830
  O     -893.210     657.556    -894.740
  O     -893.770     658.063    -897.280
  O     -894.090     655.764    -896.260
  H     -893.450     655.591    -896.950
  H     -892.420     656.790    -892.990
  H     -892.590     655.617    -894.340
  H     -894.030     656.185    -893.420
  H     -893.301     659.971    -889.379
  H     -894.838     660.259    -888.600
  H     -894.312     661.297    -889.904

 3  4  5  6  7  8  9  10  11  12  13  23  28  29  30  31  32 0
 6-311+G(2d,p)
 ****
 33  34 0
 6-311+G(2d,p)
 ****
 1  2  14  15  16  17  18  19  20  21  22  24  25  26  27 0
 3-21G
 ****
 35  36  37  38  39  40  41  42  43  44  45 0
 3-21G
 ****


