%nproc=1
%NoSave
%Mem=1900MB
#P OB98/GEN NMR

erre ene a

0 1
  C      113.426     142.962     -98.117
  O      113.277     144.058     -98.998
  H      113.379     143.331     -97.089
  H      114.394     142.476     -98.269
  H      112.619     142.239     -98.269
  P      113.390     143.794    -100.574
  C      115.366     142.290    -101.309
  O      114.949     143.587    -100.885
  C      116.774     142.347    -101.903
  O      117.744     142.597    -100.868
  C      117.213     141.054    -102.583
  O      116.580     140.909    -103.841
  C      118.718     141.262    -102.629
  O      119.082     142.149    -103.698
  C      118.974     141.930    -101.256
  N      119.401     140.990    -100.223
  C      120.506     140.189    -100.541
  O      121.046     140.288    -101.642
  N      120.950     139.289     -99.603
  C      120.377     139.223     -98.442
  N      120.869     138.309     -97.555
  C      119.234     140.072     -98.055
  C      118.796     140.918     -98.985
  O      112.709     144.788    -101.463
  O      112.785     142.321    -100.764
  H      120.041     142.312    -103.600
  H      111.838     142.367    -100.989
  H      118.794     139.992     -97.070
  H      117.961     141.582     -98.786
  H      119.740     142.713    -101.346
  H      119.261     140.330    -102.788
  H      117.002     140.192    -101.937
  H      116.810     143.192    -102.602
  H      121.666     137.763     -97.861
  H      114.651     141.954    -102.066
  H      120.612     138.284     -96.581
  H      115.340     141.584    -100.470
  P      116.560     139.507    -104.613
  C      118.311     138.062    -105.826
  O      118.085     139.219    -105.036
  O      115.571     139.410    -105.728
  O      116.318     138.436    -103.450
  H      115.364     138.430    -103.179
  H      119.355     137.977    -106.043
  H      117.762     138.142    -106.741
  H      117.986     137.195    -105.290

 6  7  8  9  10  11  12  13  14  15  16  26  30  31  32  33  35 0
 6-311+G(2d,p)
 ****
 37  38 0
 6-311+G(2d,p)
 ****
 1  2  3  4  5  17  18  19  20  21  22  23  24  25 0
 3-21G
 ****
 27  28  29  34  36  39  40  41  42  43  44  45  46 0
 3-21G
 ****


