%nproc=1
%NoSave
%Mem=1900MB
#P OB98/GEN NMR

erre ene a

0 1
  C      149.256     440.641     148.173
  O      147.868     440.735     147.817
  P      146.781     441.395     148.799
  C      146.273     441.440     151.327
  O      146.983     440.791     150.275
  C      145.871     440.455     152.433
  O      144.930     439.481     151.934
  C      147.030     439.652     153.020
  O      147.761     440.441     153.948
  C      146.291     438.465     153.630
  O      145.742     438.813     154.908
  C      145.171     438.233     152.606
  N      145.621     433.184     151.912
  C      145.252     433.920     152.987
  N      145.163     435.264     153.099
  C      145.476     435.854     151.926
  C      145.872     435.232     150.749
  C      145.945     433.830     150.767
  N      146.330     433.083     149.678
  N      146.133     436.168     149.772
  C      145.884     437.330     150.341
  N      145.482     437.190     151.640
  O      145.374     441.318     148.299
  O      147.248     442.920     148.956
  H      145.210     439.620     154.787
  H      146.469     443.483     149.142
  H      145.004     433.353     153.880
  H      145.974     438.298     149.854
  H      144.230     437.957     153.097
  H      146.942     437.596     153.777
  H      147.690     439.304     152.218
  H      145.366     441.025     153.221
  H      145.374     441.906     150.904
  H      146.385     432.082     149.783
  H      146.615     433.561     148.834
  H      146.915     442.226     151.745
  P      149.283     440.840     153.637
  C      151.338     439.506     152.881
  O      150.136     439.484     153.629
  O      149.842     441.941     154.474
  O      149.260     441.251     152.086
  H      149.950     441.913     151.917
  H      151.114     439.364     151.822
  H      151.975     438.679     153.219
  H      151.873     440.445     153.028
  H      149.797     440.170     147.379
  H      149.357     440.060     149.066
  H      149.649     441.622     148.340

 3  4  5  6  7  8  9  10  11  12  22  25  29  30  31  32 0
 6-311+G(2d,p)
 ****
 33  36  37 0
 6-311+G(2d,p)
 ****
 1  2  13  14  15  16  17  18  19  20  21  23  24  26 0
 3-21G
 ****
 27  28  34  35  38  39  40  41  42  43  44  45  46  47  48 0
 3-21G
 ****


