%nproc=1
%NoSave
%Mem=1900MB
#P OB98/GEN NMR

erre ene a

0 1
  C       93.942     -52.803       0.556
  O       94.813     -52.226       1.501
  P       96.338     -52.656       1.678
  C       95.894     -54.281       3.678
  O       96.384     -54.109       2.353
  C       96.416     -55.588       4.292
  O       95.942     -56.697       3.487
  C       97.952     -55.646       4.275
  O       98.528     -56.174       5.462
  C       98.249     -56.375       2.971
  O       99.545     -56.951       2.924
  C       97.081     -57.353       2.890
  N       98.699     -59.376      -1.480
  C       99.336     -59.329      -0.255
  N      100.633     -59.706      -0.247
  N       98.759     -58.916       0.842
  C       97.497     -58.465       0.655
  C       96.763     -58.463      -0.509
  C       97.401     -58.953      -1.708
  O       96.913     -58.908      -2.836
  N       95.542     -57.866      -0.340
  C       95.547     -57.475       0.919
  N       96.727     -57.786       1.554
  O       97.272     -51.611       2.195
  O       96.764     -52.980       0.155
  H      100.192     -56.223       2.951
  H       97.703     -52.726       0.059
  H       99.224     -59.631      -2.309
  H       94.743     -56.939       1.410
  H       97.280     -58.262       3.459
  H       98.200     -55.638       2.162
  H      101.142     -59.887      -1.099
  H       98.373     -54.636       4.218
  H      101.182     -59.446       0.568
  H       96.002     -55.703       5.299
  H       94.801     -54.311       3.600
  H       96.163     -53.426       4.301
  P       99.932     -55.828       6.134
  C      100.946     -57.959       5.127
  O      101.090     -56.563       5.306
  O       99.934     -56.619       7.524
  O      100.170     -54.373       6.369
  H      100.347     -56.066       8.214
  H      101.904     -58.372       4.804
  H      100.196     -58.154       4.356
  H      100.646     -58.442       6.062
  H       92.978     -52.346       0.634
  H       93.856     -53.853       0.745
  H       94.331     -52.649      -0.429

 3  4  5  6  7  8  9  10  11  12  23  26  30  31 0
 6-311+G(2d,p)
 ****
 33  35  36  37  38 0
 6-311+G(2d,p)
 ****
 1  2  13  14  15  16  17  18  19  20  21  22  24  25 0
 3-21G
 ****
 27  28  29  32  34  39  40  41  42  43  44  45  46  47  48  49 0
 3-21G
 ****


