%nproc=1
%NoSave
%Mem=1900MB
#P OB98/GEN NMR

erre ene a

0 1
  C      233.617    -375.041     -55.817
  O      233.302    -375.327     -54.467
  P      233.913    -374.428     -53.294
  C      232.050    -375.440     -51.782
  O      233.403    -375.054     -51.908
  C      231.594    -375.388     -50.318
  O      232.303    -376.421     -49.594
  C      231.907    -374.081     -49.595
  O      231.090    -374.000     -48.427
  C      233.351    -374.290     -49.189
  O      233.742    -373.426     -48.126
  C      233.392    -375.805     -48.865
  N      234.680    -376.408     -49.257
  C      235.680    -376.435     -48.293
  O      235.507    -376.055     -47.135
  N      236.916    -376.833     -48.724
  C      237.237    -377.153     -50.011
  O      238.383    -377.206     -50.437
  C      236.095    -377.336     -50.922
  C      234.888    -376.935     -50.518
  O      233.086    -373.064     -53.422
  O      235.383    -374.196     -53.378
  H      233.014    -373.441     -47.463
  H      233.593    -372.413     -53.942
  H      237.674    -376.715     -48.061
  H      236.288    -377.732     -51.909
  H      234.035    -377.009     -51.187
  H      233.245    -375.988     -47.793
  H      233.997    -374.072     -50.048
  H      231.783    -373.185     -50.210
  H      230.522    -375.612     -50.264
  H      231.921    -376.446     -52.190
  H      231.411    -374.779     -52.380
  P      230.428    -372.581     -48.071
  C      228.513    -373.630     -46.722
  O      229.644    -372.783     -46.689
  O      229.650    -371.930     -49.166
  O      231.693    -371.694     -47.635
  H      231.464    -370.749     -47.682
  H      228.391    -374.091     -45.739
  H      228.625    -374.418     -47.473
  H      227.624    -373.035     -46.948
  H      233.121    -375.742     -56.455
  H      234.675    -375.115     -55.960
  H      233.293    -374.050     -56.057

 3  4  5  6  7  8  9  10  11  12  13  23  28  29  30  31  32 0
 6-311+G(2d,p)
 ****
 33  34 0
 6-311+G(2d,p)
 ****
 1  2  14  15  16  17  18  19  20  21  22  24  25  26  27 0
 3-21G
 ****
 35  36  37  38  39  40  41  42  43  44  45 0
 3-21G
 ****


