%nproc=1
%NoSave
%Mem=1900MB
#P OB98/GEN NMR

erre ene a

0 1
  C     -120.323     -97.745     -16.117
  O     -121.361     -97.100     -15.408
  H     -120.735     -98.625     -16.616
  H     -119.542     -98.069     -15.426
  H     -119.897     -97.082     -16.875
  P     -121.073     -95.667     -14.751
  C     -119.510     -94.746     -12.919
  O     -119.851     -95.861     -13.733
  C     -118.004     -94.723     -12.675
  O     -117.307     -94.385     -13.893
  C     -117.558     -93.692     -11.643
  O     -117.847     -94.134     -10.331
  C     -116.077     -93.586     -11.973
  O     -115.344     -94.676     -11.395
  C     -116.097     -93.690     -13.517
  N     -116.011     -92.391     -14.183
  C     -114.860     -92.152     -14.926
  O     -113.931     -92.955     -15.003
  N     -114.802     -90.942     -15.566
  C     -115.724     -89.941     -15.467
  O     -115.600     -88.852     -16.020
  C     -116.903     -90.236     -14.641
  C     -116.991     -91.428     -14.047
  O     -122.260     -94.964     -14.180
  O     -120.413     -94.831     -15.947
  H     -115.482     -94.623     -10.430
  H     -121.082     -94.245     -16.346
  H     -113.970     -90.746     -16.099
  H     -117.652     -89.464     -14.536
  H     -117.851     -91.662     -13.429
  H     -115.261     -94.308     -13.866
  H     -115.627     -92.668     -11.594
  H     -118.033     -92.725     -11.844
  H     -117.690     -95.732     -12.377
  H     -120.034     -94.837     -11.961
  H     -119.836     -93.830     -13.419
  P     -118.031     -93.086      -9.138
  C     -116.531     -91.664      -7.625
  O     -116.574     -92.528      -8.754
  O     -118.834     -93.574      -7.978
  O     -118.729     -91.825      -9.834
  H     -119.671     -91.784      -9.576
  H     -115.522     -91.350      -7.454
  H     -116.893     -92.185      -6.763
  H     -117.145     -90.807      -7.808

 6  7  8  9  10  11  12  13  14  15  16  26  31  32  33  34  35 0
 6-311+G(2d,p)
 ****
 36  37 0
 6-311+G(2d,p)
 ****
 1  2  3  4  5  17  18  19  20  21  22  23  24  25 0
 3-21G
 ****
 27  28  29  30  38  39  40  41  42  43  44  45 0
 3-21G
 ****


