%nproc=1
%NoSave
%Mem=1900MB
#P OB98/GEN NMR

erre ene a

0 1
  C     -368.048      82.022    -167.077
  O     -368.379      83.295    -167.596
  H     -368.972      81.461    -166.910
  H     -367.527      82.127    -166.122
  H     -367.423      81.464    -167.783
  P     -367.191      84.286    -168.024
  C     -367.676      85.705    -165.934
  O     -367.517      85.710    -167.346
  C     -367.116      86.993    -165.328
  O     -365.667      86.921    -165.329
  C     -367.521      88.261    -166.094
  O     -367.755      89.309    -165.148
  C     -366.294      88.584    -166.921
  O     -366.198      89.972    -167.240
  C     -365.167      88.085    -166.022
  N     -360.897      89.980    -167.953
  C     -361.852      90.572    -167.149
  N     -361.662      91.869    -166.834
  N     -362.907      89.947    -166.700
  C     -362.968      88.645    -167.084
  C     -362.087      87.949    -167.873
  C     -360.928      88.655    -168.377
  O     -360.054      88.180    -169.096
  N     -362.507      86.650    -168.056
  C     -363.643      86.572    -167.379
  N     -363.968      87.761    -166.782
  O     -366.912      84.353    -169.492
  O     -365.928      83.762    -167.200
  H     -365.401      90.084    -167.801
  H     -365.348      83.220    -167.765
  H     -360.107      90.513    -168.276
  H     -364.262      85.689    -167.303
  H     -364.871      88.835    -165.270
  H     -366.319      88.018    -167.865
  H     -360.864      92.415    -167.131
  H     -368.412      88.119    -166.715
  H     -362.339      92.324    -166.231
  H     -367.430      87.053    -164.281
  H     -367.134      84.844    -165.527
  H     -368.739      85.606    -165.686
  P     -369.266      89.625    -164.705
  C     -369.224      91.695    -166.245
  O     -369.536      91.192    -164.950
  O     -369.660      89.112    -163.355
  O     -370.129      88.932    -165.862
  H     -370.983      88.648    -165.488
  H     -369.445      92.741    -166.284
  H     -369.808      91.179    -166.978
  H     -368.184      91.542    -166.446

 6  7  8  9  10  11  12  13  14  15  26  29  33  34 0
 6-311+G(2d,p)
 ****
 36  38  39  40  41 0
 6-311+G(2d,p)
 ****
 1  2  3  4  5  16  17  18  19  20  21  22  23  24  25 0
 3-21G
 ****
 27  28  30  31  32  35  37  42  43  44  45  46  47 0
 3-21G
 ****
 48  49 0
 3-21G
 ****


