%nproc=1
%NoSave
%Mem=1900MB
#P OB98/GEN NMR

erre ene a

0 1
  C      -42.416    -115.038    -218.286
  O      -42.352    -115.206    -219.695
  P      -40.923    -114.987    -220.405
  C      -39.487    -112.902    -221.013
  O      -40.692    -113.401    -220.431
  C      -39.723    -111.536    -221.647
  O      -40.459    -111.682    -222.881
  C      -40.533    -110.573    -220.795
  O      -39.733    -109.922    -219.816
  C      -40.996    -109.580    -221.849
  O      -39.930    -108.657    -222.156
  C      -41.273    -110.489    -223.051
  N      -45.840    -109.115    -224.907
  C      -44.645    -108.478    -224.894
  N      -43.478    -108.907    -224.371
  C      -43.632    -110.110    -223.783
  C      -44.796    -110.858    -223.688
  C      -45.938    -110.320    -224.294
  N      -47.150    -110.978    -224.337
  N      -44.562    -112.033    -223.011
  C      -43.283    -112.005    -222.712
  N      -42.669    -110.868    -223.162
  O      -41.226    -115.343    -221.937
  O      -39.808    -115.804    -219.847
  H      -39.702    -108.204    -221.318
  H      -40.400    -115.601    -222.391
  H      -44.621    -107.504    -225.371
  H      -42.751    -112.783    -222.180
  H      -40.979    -110.027    -223.999
  H      -41.853    -108.980    -221.519
  H      -41.403    -111.069    -220.350
  H      -38.740    -111.105    -221.893
  H      -39.150    -113.607    -221.782
  H      -47.866    -110.614    -224.948
  H      -47.171    -111.953    -224.062
  H      -38.719    -112.838    -220.234
  P      -40.358    -109.799    -218.341
  C      -42.550    -108.649    -217.539
  O      -41.453    -108.636    -218.439
  O      -39.165    -109.140    -217.499
  O      -40.814    -111.099    -217.760
  H      -39.246    -109.373    -216.552
  H      -43.005    -107.657    -217.531
  H      -42.220    -108.889    -216.522
  H      -43.293    -109.381    -217.870
  H      -43.417    -115.212    -217.951
  H      -42.124    -114.041    -218.032
  H      -41.755    -115.735    -217.813

 3  4  5  6  7  8  9  10  11  12  22  25  29  30  31  32 0
 6-311+G(2d,p)
 ****
 33  36  37 0
 6-311+G(2d,p)
 ****
 1  2  13  14  15  16  17  18  19  20  21  23  24  26 0
 3-21G
 ****
 27  28  34  35  38  39  40  41  42  43  44  45  46  47  48 0
 3-21G
 ****


