%nproc=1
%NoSave
%Mem=1900MB
#P OB98/GEN NMR

erre ene a

0 1
  C     -320.544    -195.887     -92.348
  O     -321.400    -196.987     -92.598
  H     -320.172    -195.507     -93.303
  H     -319.693    -196.206     -91.739
  H     -321.091    -195.092     -91.836
  P     -322.002    -197.726     -91.308
  C     -323.913    -195.976     -91.206
  O     -322.855    -196.623     -90.512
  C     -324.547    -194.900     -90.326
  O     -325.451    -194.079     -91.097
  C     -325.346    -195.445     -89.147
  O     -324.496    -195.738     -88.050
  C     -326.285    -194.277     -88.866
  O     -325.618    -193.246     -88.108
  C     -326.617    -193.784     -90.280
  N     -331.402    -192.927     -91.648
  C     -330.503    -192.111     -90.992
  N     -330.951    -190.890     -90.618
  N     -329.273    -192.458     -90.714
  C     -328.979    -193.725     -91.091
  C     -329.781    -194.634     -91.746
  C     -331.122    -194.214     -92.096
  O     -331.939    -194.859     -92.747
  N     -329.116    -195.810     -91.975
  C     -327.928    -195.627     -91.432
  N     -327.797    -194.374     -90.879
  O     -320.722    -197.946     -90.371
  O     -322.700    -199.014     -91.576
  H     -326.260    -192.550     -87.880
  H     -320.803    -198.812     -89.928
  H     -332.325    -192.596     -91.859
  H     -327.129    -196.355     -91.422
  H     -326.764    -192.697     -90.310
  H     -327.145    -194.589     -88.270
  H     -331.935    -190.684     -90.542
  H     -325.937    -196.321     -89.440
  H     -330.312    -190.322     -90.074
  H     -323.740    -194.246     -89.974
  H     -324.672    -196.723     -91.472
  H     -323.522    -195.524     -92.121
  P     -325.170    -196.192     -86.670
  C     -325.599    -198.538     -87.705
  O     -326.136    -197.442     -86.977
  O     -326.191    -194.998     -86.362
  O     -324.213    -196.384     -85.541
  H     -325.836    -194.438     -85.644
  H     -326.353    -199.287     -87.831
  H     -324.772    -198.952     -87.168
  H     -325.268    -198.201     -88.665

 6  7  8  9  10  11  12  13  14  15  26  29  33  34 0
 6-311+G(2d,p)
 ****
 36  38  39  40  41 0
 6-311+G(2d,p)
 ****
 1  2  3  4  5  16  17  18  19  20  21  22  23  24  25 0
 3-21G
 ****
 27  28  30  31  32  35  37  42  43  44  45  46  47 0
 3-21G
 ****
 48  49 0
 3-21G
 ****


