%nproc=1
%NoSave
%Mem=1900MB
#P OB98/GEN NMR

erre ene a

0 1
  C      -48.293      22.510      29.473
  O      -48.004      23.767      30.052
  H      -48.946      21.954      30.149
  H      -47.370      21.942      29.327
  H      -48.803      22.642      28.515
  P      -47.067      24.753      29.200
  C      -44.534      24.799      28.617
  O      -45.558      24.273      29.452
  C      -43.280      25.059      29.444
  O      -43.566      26.036      30.472
  C      -42.763      23.833      30.183
  O      -42.041      22.956      29.337
  C      -41.907      24.479      31.261
  O      -40.602      24.804      30.768
  C      -42.687      25.757      31.586
  N      -42.503      26.211      36.667
  C      -41.599      26.491      35.703
  N      -41.730      26.353      34.366
  C      -42.957      25.900      34.056
  C      -43.982      25.576      34.928
  C      -43.720      25.750      36.297
  N      -44.630      25.443      37.280
  N      -45.079      25.105      34.235
  C      -44.727      25.153      32.966
  N      -43.455      25.629      32.809
  O      -47.169      26.132      30.005
  O      -47.454      24.914      27.769
  H      -40.028      24.895      31.553
  H      -47.803      26.724      29.558
  H      -40.641      26.864      36.051
  H      -45.348      24.848      32.133
  H      -42.029      26.626      31.705
  H      -41.784      23.810      32.112
  H      -43.595      23.304      30.664
  H      -42.505      25.474      28.786
  H      -44.876      25.740      28.172
  H      -44.327      24.082      27.816
  H      -44.351      25.528      38.244
  H      -45.498      24.992      37.021
  P      -42.527      21.431      29.255
  C      -42.972      19.616      31.073
  O      -42.226      20.758      30.677
  O      -41.466      20.743      28.275
  O      -43.926      21.252      28.771
  H      -41.908      20.064      27.730
  H      -42.647      19.296      32.041
  H      -42.819      18.827      30.366
  H      -44.012      19.865      31.110

 6  7  8  9  10  11  12  13  14  15  25  28  32  33  34  35 0
 6-311+G(2d,p)
 ****
 36  37  40 0
 6-311+G(2d,p)
 ****
 1  2  3  4  5  16  17  18  19  20  21  22  23  24 0
 3-21G
 ****
 26  27  29  30  31  38  39 41  42  43  44  45  46  47  48 0
 3-21G
 ****


