%nproc=1
%NoSave
%Mem=1900MB
#P OB98/GEN NMR

erre ene a

0 1
  C      118.097    -428.146    -889.079
  O      119.226    -427.495    -889.628
  H      118.215    -429.226    -889.212
  H      117.192    -427.826    -889.602
  H      118.006    -427.928    -888.013
  P      119.295    -425.901    -889.458
  C      121.015    -426.014    -887.521
  O      119.711    -425.626    -887.927
  C      121.501    -425.125    -886.371
  O      121.693    -423.765    -886.870
  C      120.531    -425.047    -885.180
  O      121.314    -424.948    -883.981
  C      119.834    -423.717    -885.401
  O      119.258    -423.192    -884.202
  C      120.990    -422.889    -885.959
  N      118.647    -418.502    -885.230
  C      119.012    -419.480    -884.331
  N      118.715    -419.256    -883.033
  N      119.627    -420.578    -884.670
  C      119.895    -420.653    -886.001
  C      119.578    -419.762    -886.990
  C      118.873    -418.553    -886.604
  O      118.503    -417.664    -887.355
  N      120.002    -420.214    -888.217
  C      120.570    -421.378    -887.961
  N      120.531    -421.693    -886.634
  O      117.755    -425.473    -889.516
  O      120.114    -425.183    -890.481
  H      118.652    -422.466    -884.456
  H      117.506    -425.230    -890.426
  H      118.163    -417.677    -884.919
  H      121.019    -422.033    -888.701
  H      121.692    -422.573    -885.186
  H      119.032    -423.826    -886.143
  H      118.282    -418.412    -882.691
  H      119.841    -425.893    -885.102
  H      119.017    -419.947    -882.348
  H      122.488    -425.480    -886.057
  H      121.699    -425.908    -888.368
  H      121.002    -427.061    -887.205
  P      121.217    -426.151    -882.924
  C      123.462    -427.437    -883.247
  O      122.057    -427.388    -883.497
  O      119.702    -426.644    -883.085
  O      121.527    -425.758    -881.515
  H      119.400    -427.048    -882.248
  H      123.873    -428.319    -883.693
  H      123.636    -427.457    -882.191
  H      123.930    -426.572    -883.670

 6  7  8  9  10  11  12  13  14  15  26  29  33  34 0
 6-311+G(2d,p)
 ****
 36  38  39  40  41 0
 6-311+G(2d,p)
 ****
 1  2  3  4  5  16  17  18  19  20  21  22  23  24  25 0
 3-21G
 ****
 27  28  30  31  32  35  37  42  43  44  45  46  47 0
 3-21G
 ****
 48  49 0
 3-21G
 ****


