%nproc=1
%NoSave
%Mem=1900MB
#P OB98/GEN NMR

erre ene a

0 1
  C      -29.052    -157.430     323.410
  O      -28.572    -156.129     323.684
  H      -28.201    -158.112     323.350
  H      -29.575    -157.433     322.451
  H      -29.724    -157.772     324.203
  P      -29.657    -155.038     324.140
  C      -31.452    -153.804     322.727
  O      -30.799    -155.033     323.011
  C      -32.767    -154.061     322.000
  O      -32.519    -154.429     320.626
  C      -33.610    -155.182     322.599
  O      -34.389    -154.721     323.694
  C      -34.491    -155.537     321.414
  O      -35.536    -154.551     321.272
  C      -33.507    -155.427     320.240
  N      -33.921    -159.945     317.976
  C      -34.872    -158.963     318.171
  N      -36.109    -159.225     317.704
  N      -34.632    -157.827     318.773
  C      -33.356    -157.713     319.211
  C      -32.326    -158.618     319.083
  C      -32.600    -159.862     318.401
  O      -31.790    -160.761     318.191
  N      -31.171    -158.153     319.654
  C      -31.507    -156.977     320.145
  N      -32.822    -156.664     319.906
  O      -28.884    -153.653     323.904
  O      -30.132    -155.162     325.547
  H      -36.002    -154.747     320.440
  H      -28.572    -153.317     324.766
  H      -34.159    -160.806     317.514
  H      -30.836    -156.312     320.672
  H      -33.991    -155.074     319.323
  H      -34.983    -156.504     321.529
  H      -36.368    -160.087     317.250
  H      -32.996    -156.049     322.874
  H      -36.822    -158.516     317.833
  H      -33.331    -153.119     321.986
  H      -30.799    -153.191     322.097
  H      -31.642    -153.277     323.668
  P      -34.982    -155.809     324.714
  C      -36.804    -157.644     324.535
  O      -35.865    -156.832     323.846
  O      -36.075    -154.968     325.527
  O      -33.985    -156.432     325.629
  H      -35.783    -154.850     326.451
  H      -37.316    -158.270     323.834
  H      -37.512    -157.021     325.039
  H      -36.292    -158.253     325.250

 6  7  8  9  10  11  12  13  14  15  26  29  33  34 0
 6-311+G(2d,p)
 ****
 36  38  39  40  41 0
 6-311+G(2d,p)
 ****
 1  2  3  4  5  16  17  18  19  20  21  22  23  24  25 0
 3-21G
 ****
 27  28  30  31  32  35  37  42  43  44  45  46  47 0
 3-21G
 ****
 48  49 0
 3-21G
 ****


