%nproc=1
%NoSave
%Mem=1900MB
#P OB98/GEN NMR

erre ene a

0 1
  C     -343.917    -724.304    -899.530
  O     -344.126    -724.578    -898.170
  P     -344.796    -723.424    -897.280
  C     -347.050    -724.685    -896.970
  O     -345.891    -724.166    -896.360
  C     -347.703    -725.748    -896.060
  O     -346.962    -726.985    -896.100
  C     -347.766    -725.335    -894.600
  O     -348.838    -724.408    -894.380
  C     -347.994    -726.709    -893.930
  O     -349.389    -727.036    -893.890
  C     -347.211    -727.665    -894.850
  N     -345.996    -728.184    -894.270
  C     -345.682    -729.527    -894.540
  O     -346.424    -730.194    -895.270
  N     -344.557    -730.076    -893.990
  C     -343.824    -729.359    -893.190
  N     -342.707    -729.939    -892.660
  C     -344.103    -727.941    -892.840
  C     -345.218    -727.415    -893.380
  O     -345.704    -722.614    -898.320
  O     -343.834    -722.553    -896.550
  H     -349.674    -727.017    -894.850
  H     -345.833    -721.690    -898.060
  H     -343.455    -727.398    -892.150
  H     -345.508    -726.418    -893.170
  H     -347.845    -728.541    -895.130
  H     -347.629    -726.714    -892.900
  H     -346.814    -724.920    -894.260
  H     -348.739    -725.966    -896.460
  H     -342.508    -730.939    -892.910
  H     -346.777    -725.196    -897.910
  H     -342.050    -729.485    -892.050
  H     -347.745    -723.900    -897.190
  P     -348.597    -723.301    -893.270
  C     -347.498    -721.648    -894.880
  O     -348.630    -721.900    -894.050
  O     -347.046    -723.474    -892.920
  O     -349.476    -723.379    -892.050
  H     -346.814    -722.912    -892.150
  H     -347.712    -720.766    -895.500
  H     -347.311    -722.477    -895.560
  H     -346.606    -721.463    -894.280
  H     -343.467    -725.154    -900.000
  H     -343.270    -723.458    -899.628
  H     -344.855    -724.092    -899.999

 3  4  5  6  7  8  9  10  11  12  13  21  23  27  28  29  30  32 0
 6-311+G(2d,p)
 ****
 34  35 0
 6-311+G(2d,p)
 ****
 1  2  14  15  16  17  18  19  20  22  24  25  26 0
 3-21G
 ****
 31  33  36  37  38  39  40  41  42  43  44  45  46 0
 3-21G
 ****


