%nproc=1
%NoSave
%Mem=1900MB
#P OB98/GEN NMR

erre ene a

0 1
  C      248.637     263.691    -286.734
  O      248.026     264.139    -287.948
  P      247.557     265.671    -288.015
  C      249.654     266.881    -288.968
  O      248.340     266.393    -289.211
  C      249.833     268.257    -289.613
  O      250.989     268.936    -289.086
  C      250.061     268.190    -291.115
  O      248.841     267.967    -291.794
  C      250.686     269.551    -291.403
  O      249.689     270.541    -291.706
  C      251.410     269.890    -290.078
  N      252.856     269.905    -290.218
  C      253.514     271.011    -289.670
  O      252.868     271.911    -289.130
  N      254.880     271.078    -289.772
  C      255.529     270.137    -290.388
  N      256.880     270.262    -290.462
  C      254.870     268.967    -291.005
  C      253.546     268.916    -290.885
  O      248.210     266.312    -286.701
  O      246.072     265.848    -288.033
  H      250.176     271.384    -291.809
  H      247.638     267.017    -286.350
  H      255.450     268.213    -291.512
  H      252.977     268.092    -291.304
  H      251.096     270.877    -289.717
  H      251.359     269.507    -292.263
  H      250.781     267.395    -291.347
  H      248.939     268.862    -289.396
  H      257.300     271.080    -290.031
  H      250.395     266.184    -289.366
  H      257.483     269.595    -290.920
  H      249.819     266.931    -287.886
  P      248.828     266.872    -292.961
  C      247.554     265.325    -291.354
  O      247.571     265.929    -292.633
  O      250.060     265.930    -292.552
  O      248.943     267.361    -294.365
  H      250.217     265.266    -293.246
  H      246.566     264.891    -291.185
  H      247.750     266.067    -290.574
  H      248.300     264.529    -291.310
  H      248.899     262.658    -286.827
  H      247.950     263.814    -285.923
  H      249.519     264.267    -286.545

 3  4  5  6  7  8  9  10  11  12  13  21  23  27  28  29  30  32 0
 6-311+G(2d,p)
 ****
 34  35 0
 6-311+G(2d,p)
 ****
 1  2  14  15  16  17  18  19  20  22  24  25  26 0
 3-21G
 ****
 31  33  36  37  38  39  40  41  42  43  44  45  46 0
 3-21G
 ****


