%nproc=1
%NoSave
%Mem=1900MB
#P OB98/GEN NMR

erre ene a

0 1
  C     -196.395     -45.353     474.162
  O     -197.453     -44.644     473.540
  P     -198.818     -45.377     473.131
  C     -198.391     -43.998     471.003
  O     -198.918     -45.206     471.538
  C     -197.570     -44.297     469.753
  O     -196.558     -45.277     470.090
  C     -198.335     -44.899     468.574
  O     -198.991     -43.952     467.749
  C     -197.199     -45.545     467.795
  O     -196.496     -44.541     467.039
  C     -196.303     -46.085     468.916
  N     -194.205     -50.597     470.115
  C     -193.667     -49.377     469.902
  N     -194.291     -48.226     469.567
  C     -195.618     -48.412     469.500
  C     -196.313     -49.597     469.690
  C     -195.549     -50.729     470.018
  N     -196.105     -51.970     470.255
  N     -197.673     -49.398     469.518
  C     -197.788     -48.119     469.234
  N     -196.577     -47.478     469.219
  O     -200.012     -44.941     473.906
  O     -198.497     -46.931     473.308
  H     -197.174     -43.961     466.639
  H     -199.331     -47.445     473.337
  H     -192.584     -49.311     470.013
  H     -198.717     -47.620     469.031
  H     -195.233     -45.994     468.683
  H     -197.543     -46.299     467.083
  H     -199.029     -45.682     468.912
  H     -197.055     -43.372     469.448
  H     -197.741     -43.540     471.758
  H     -195.497     -52.692     470.607
  H     -197.110     -52.030     470.342
  H     -199.206     -43.303     470.783
  P     -200.603     -43.966     467.748
  C     -200.451     -45.465     465.609
  O     -201.022     -45.246     466.882
  O     -201.232     -42.677     467.341
  O     -200.955     -44.406     469.252
  H     -200.703     -45.313     469.483
  H     -200.740     -46.461     465.258
  H     -199.362     -45.419     465.655
  H     -200.826     -44.724     464.898
  H     -195.581     -44.685     474.351
  H     -196.067     -46.142     473.518
  H     -196.738     -45.767     475.087

 3  4  5  6  7  8  9  10  11  12  22  25  29  30  31  32 0
 6-311+G(2d,p)
 ****
 33  36  37 0
 6-311+G(2d,p)
 ****
 1  2  13  14  15  16  17  18  19  20  21  23  24  26 0
 3-21G
 ****
 27  28  34  35  38  39  40  41  42  43  44  45  46  47  48 0
 3-21G
 ****


