%nproc=1
%NoSave
%Mem=1900MB
#P OB98/GEN NMR

erre ene a

0 1
  C     -139.043      81.078     -44.456
  O     -139.671      81.960     -45.374
  P     -139.141      83.473     -45.436
  C     -137.174      82.797     -46.973
  O     -137.567      83.393     -45.744
  C     -135.755      83.209     -47.347
  O     -135.384      82.546     -48.586
  C     -135.573      84.721     -47.561
  O     -134.350      85.141     -46.939
  C     -135.391      84.847     -49.064
  O     -134.656      86.013     -49.417
  C     -134.679      83.529     -49.369
  N     -131.694      82.267     -53.240
  C     -131.409      82.331     -51.891
  N     -130.131      82.076     -51.533
  N     -132.294      82.621     -50.974
  C     -133.537      82.821     -51.474
  C     -133.945      82.778     -52.788
  C     -132.942      82.515     -53.796
  O     -133.111      82.534     -55.014
  N     -135.291      83.019     -52.900
  C     -135.697      83.212     -51.660
  N     -134.659      83.151     -50.763
  O     -139.207      83.936     -43.905
  O     -139.926      84.388     -46.311
  H     -133.810      85.976     -48.931
  H     -139.754      84.741     -43.826
  H     -130.970      82.057     -53.905
  H     -136.716      83.431     -51.369
  H     -133.640      83.564     -49.017
  H     -136.375      84.896     -49.542
  H     -129.409      81.811     -52.183
  H     -136.403      85.330     -47.192
  H     -129.908      82.096     -50.546
  H     -135.070      82.844     -46.573
  H     -137.861      83.118     -47.764
  H     -137.235      81.709     -46.874
  P     -134.372      86.597     -46.260
  C     -135.398      85.884     -43.976
  O     -135.572      86.566     -45.203
  O     -134.916      87.542     -47.430
  O     -133.046      87.039     -45.736
  H     -134.620      88.461     -47.291
  H     -134.361      85.575     -43.819
  H     -136.036      84.998     -43.969
  H     -135.697      86.544     -43.158
  H     -139.496      80.111     -44.524
  H     -139.158      81.457     -43.462
  H     -138.002      81.001     -44.690

 3  4  5  6  7  8  9  10  11  12  23  26  30  31  33  0
 6-311+G(2d,p)
 ****
 35  36  37  38 0
 6-311+G(2d,p)
 ****
 1  2  13  14  15  16  17  18  19  20  21  22  24  25  27  28  29 0
 3-21G
 ****
 32  34  39  40  41  42  43  44  45  46  47  48  49 0
 3-21G
 ****


