%nproc=1
%NoSave
%Mem=1900MB
#P OB98/GEN NMR

erre ene a

0 1
  C      410.983    -225.580     200.467
  O      410.462    -226.880     200.147
  P      410.225    -227.214     198.595
  C      408.719    -226.323     196.664
  O      409.155    -226.169     198.007
  C      407.247    -226.756     196.631
  O      407.064    -228.019     197.288
  C      406.326    -225.788     197.357
  O      406.066    -224.645     196.561
  C      405.095    -226.654     197.615
  O      404.154    -226.574     196.533
  C      405.692    -228.081     197.717
  N      405.581    -228.645     199.056
  C      404.497    -229.501     199.267
  O      403.695    -229.732     198.356
  N      404.340    -230.064     200.511
  C      405.175    -229.769     201.459
  N      404.953    -230.354     202.673
  C      406.315    -228.844     201.286
  C      406.454    -228.322     200.073
  O      409.408    -228.588     198.642
  O      411.486    -227.347     197.801
  H      403.445    -227.222     196.741
  H      409.634    -229.140     197.867
  H      406.975    -228.626     202.113
  H      407.265    -227.632     199.849
  H      405.173    -228.762     197.027
  H      404.565    -226.344     198.521
  H      406.773    -225.489     198.317
  H      406.936    -226.849     195.583
  H      404.164    -230.977     202.760
  H      409.328    -227.054     196.142
  H      405.540    -230.193     203.484
  H      408.860    -225.364     196.130
  P      406.693    -223.246     197.031
  C      405.940    -221.390     198.642
  O      405.621    -222.639     198.056
  O      406.461    -222.325     195.736
  O      408.115    -223.243     197.476
  H      406.889    -221.455     195.857
  H      405.060    -220.993     199.145
  H      406.256    -220.678     197.875
  H      406.742    -221.517     199.380
  H      411.092    -225.491     201.528
  H      410.309    -224.828     200.113
  H      411.937    -225.453     199.999

 3  4  5  6  7  8  9  10  11  12  13  21  23  27  28  29  30  32 0
 6-311+G(2d,p)
 ****
 34  35 0
 6-311+G(2d,p)
 ****
 1  2  14  15  16  17  18  19  20  22  24  25  26 0
 3-21G
 ****
 31  33  36  37  38  39  40  41  42  43  44  45  46 0
 3-21G
 ****


