%nproc=1
%NoSave
%Mem=1900MB
#P OB98/GEN NMR

erre ene a

0 1
  C      163.460     -18.932     393.182
  O      163.879     -19.362     391.900
  P      164.355     -20.887     391.744
  C      163.478     -21.649     389.407
  O      163.278     -21.626     390.816
  C      162.484     -20.704     388.731
  O      162.820     -19.328     389.016
  C      162.473     -20.817     387.212
  O      161.734     -21.947     386.781
  C      161.845     -19.490     386.807
  O      160.413     -19.556     386.879
  C      162.400     -18.534     387.886
  N      163.479     -17.691     387.381
  C      163.120     -16.751     386.418
  O      161.971     -16.644     385.989
  N      164.135     -15.969     385.936
  C      165.453     -16.068     386.274
  O      166.325     -15.377     385.764
  C      165.780     -17.099     387.275
  C      164.796     -17.854     387.768
  O      164.104     -21.516     393.195
  O      165.770     -21.053     391.304
  H      160.092     -18.630     386.923
  H      164.800     -22.168     393.397
  H      163.890     -15.268     385.256
  H      166.817     -17.204     387.566
  H      165.017     -18.627     388.498
  H      161.601     -17.882     388.259
  H      162.104     -19.204     385.782
  H      163.504     -20.853     386.834
  H      161.482     -20.902     389.139
  H      163.332     -22.664     389.038
  H      164.507     -21.345     389.189
  P      162.567     -23.157     386.130
  C      161.036     -24.900     387.331
  O      162.337     -24.399     387.116
  O      164.069     -22.671     386.414
  O      162.244     -23.381     384.693
  H      164.140     -22.166     387.241
  H      160.426     -24.839     386.423
  H      160.553     -24.327     388.130
  H      161.104     -25.944     387.643
  H      163.173     -17.902     393.137
  H      164.265     -19.048     393.878
  H      162.625     -19.521     393.501

 3  4  5  6  7  8  9  10  11  12  13  23  28  29  30  31  32 0
 6-311+G(2d,p)
 ****
 33  34 0
 6-311+G(2d,p)
 ****
 1  2  14  15  16  17  18  19  20  21  22  24  25  26 0
 3-21G
 ****
 27  35  36  37  38  39  40  41  42  43  44  45 0
 3-21G
 ****


