%nproc=1
%NoSave
%Mem=1900MB
#P OB98/GEN NMR

erre ene a

0 1
  C       45.541    -275.127     -24.160
  O       46.625    -275.512     -23.304
  P       47.823    -276.471     -23.777
  C       49.686    -275.954     -22.069
  O       48.704    -276.888     -22.501
  C       49.101    -274.923     -21.098
  O       48.489    -275.599     -19.957
  C       50.128    -273.921     -20.540
  O       49.467    -272.654     -20.465
  C       50.403    -274.490     -19.156
  O       50.990    -273.561     -18.264
  C       48.989    -274.938     -18.774
  N       48.901    -275.821     -17.615
  C       48.379    -275.288     -16.431
  O       48.058    -274.105     -16.344
  N       48.249    -276.118     -15.341
  C       48.610    -277.359     -15.420
  N       48.445    -278.126     -14.309
  C       49.183    -277.954     -16.640
  C       49.295    -277.138     -17.686
  O       48.634    -275.908     -24.899
  O       47.123    -277.841     -24.222
  H       47.608    -278.216     -24.982
  H       51.147    -274.017     -17.416
  H       49.465    -278.996     -16.664
  H       49.680    -277.508     -18.632
  H       48.360    -274.056     -18.610
  H       51.088    -275.337     -19.254
  H       51.021    -273.817     -21.164
  H       48.294    -274.390     -21.615
  H       48.039    -277.684     -13.492
  H       50.076    -275.431     -22.947
  H       48.685    -279.104     -14.261
  H       50.512    -276.497     -21.597
  P       50.152    -271.363     -21.124
  C       47.905    -270.217     -21.772
  O       49.103    -270.155     -21.027
  O       50.095    -271.721     -22.688
  O       51.560    -271.078     -20.713
  H       50.806    -271.243     -23.152
  H       47.077    -269.902     -21.131
  H       47.696    -271.225     -22.141
  H       47.975    -269.533     -22.621
  H       44.872    -274.488     -23.622
  H       45.016    -276.001     -24.486
  H       45.926    -274.605     -25.011

 3  4  5  6  7  8  9  10  11  12  13  24  27  28  29  30  32 0
 6-311+G(2d,p)
 ****
 34  35 0
 6-311+G(2d,p)
 ****
 1  2  14  15  16  17  18  19  20  21  22  23  25  26 0
 3-21G
 ****
 31  33  36  37  38  39  40  41  42  43  44  45  46 0
 3-21G
 ****


