%nproc=1
%NoSave
%Mem=1900MB
#P OB98/GEN NMR

erre ene a

0 1
  C     -333.358    -147.944     491.408
  O     -333.137    -149.310     491.704
  H     -332.385    -147.439     491.349
  H     -333.946    -147.462     492.192
  H     -333.864    -147.844     490.447
  P     -334.412    -150.236     491.997
  C     -334.344    -149.904     494.570
  O     -335.053    -149.670     493.352
  C     -335.116    -149.321     495.751
  O     -335.365    -147.918     495.537
  C     -336.485    -149.968     495.952
  O     -336.363    -151.247     496.543
  C     -337.173    -148.910     496.798
  O     -336.785    -149.016     498.172
  C     -336.641    -147.607     496.159
  N     -337.565    -147.026     495.190
  C     -338.029    -145.733     495.480
  O     -337.646    -145.149     496.491
  N     -338.925    -145.157     494.612
  C     -339.314    -145.794     493.555
  N     -340.204    -145.158     492.740
  C     -338.840    -147.150     493.211
  C     -337.982    -147.700     494.067
  O     -334.186    -151.718     491.995
  O     -335.467    -149.786     490.877
  H     -335.810    -149.053     498.169
  H     -335.361    -150.323     490.070
  H     -339.191    -147.640     492.304
  H     -337.584    -148.695     493.885
  H     -336.438    -146.859     496.937
  H     -338.257    -149.014     496.749
  H     -337.016    -150.034     494.983
  H     -334.496    -149.427     496.652
  H     -340.509    -144.237     493.024
  H     -333.368    -149.414     494.472
  H     -340.506    -145.523     491.846
  H     -334.179    -150.980     494.716
  P     -337.256    -152.473     496.028
  C     -338.950    -151.873     497.888
  O     -338.757    -152.132     496.491
  O     -336.759    -153.831     496.404
  O     -337.309    -152.242     494.434
  H     -336.454    -152.470     494.001
  H     -339.982    -151.660     498.072
  H     -338.355    -151.033     498.181
  H     -338.657    -152.732     498.454

 6  7  8  9  10  11  12  13  14  15  16  26  30  31  32  33  35 0
 6-311+G(2d,p)
 ****
 37  38 0
 6-311+G(2d,p)
 ****
 1  2  3  4  5  17  18  19  20  21  22  23  24  25 0
 3-21G
 ****
 27  28  29  34  36  39  40  41  42  43  44  45  46 0
 3-21G
 ****


