%nproc=1
%NoSave
%Mem=1900MB
#P OB98/GEN NMR

erre ene a

0 1
  C     -135.548     623.415     115.723
  O     -136.837     622.806     115.582
  P     -137.454     622.118     116.893
  C     -138.864     620.209     115.844
  O     -138.870     621.471     116.496
  C     -139.833     620.212     114.653
  O     -139.256     620.811     113.487
  C     -140.273     618.813     114.233
  O     -141.289     618.348     115.102
  C     -140.762     619.058     112.814
  O     -142.125     619.535     112.796
  C     -139.809     620.154     112.311
  N     -138.402     619.078     107.560
  C     -139.651     619.400     108.066
  N     -140.666     619.470     107.169
  N     -139.890     619.640     109.321
  C     -138.776     619.537     110.106
  C     -137.484     619.258     109.714
  C     -137.243     618.989     108.311
  O     -136.153     618.734     107.808
  N     -136.620     619.302     110.777
  C     -137.408     619.487     111.825
  N     -138.721     619.690     111.459
  O     -137.841     623.362     117.821
  O     -136.501     621.194     117.579
  H     -142.501     619.406     111.911
  H     -137.240     623.401     118.591
  H     -138.285     618.903     106.572
  H     -137.081     619.502     112.849
  H     -140.339     620.919     111.736
  H     -140.744     618.146     112.212
  H     -140.555     619.300     106.177
  H     -139.408     618.129     114.229
  H     -141.583     619.705     107.518
  H     -140.711     620.811     114.955
  H     -139.150     619.426     116.546
  H     -137.845     619.980     115.520
  P     -141.288     616.787     115.488
  C     -143.876     616.596     115.388
  O     -142.695     616.457     116.164
  O     -140.253     616.722     116.710
  O     -140.871     615.876     114.385
  H     -139.656     615.957     116.601
  H     -144.622     615.886     115.739
  H     -143.684     616.415     114.325
  H     -144.271     617.615     115.512
  H     -135.248     623.836     114.786
  H     -134.836     622.676     116.027
  H     -135.597     624.188     116.461

 3  4  5  6  7  8  9  10  11  12  23  26  30  31 0
 6-311+G(2d,p)
 ****
 33  35  36  37  38 0
 6-311+G(2d,p)
 ****
 1  2  13  14  15  16  17  18  19  20  21  22  24  25 0
 3-21G
 ****
 27  28  29  32  34  39  40  41  42  43  44  45  46  47  48  49 0
 3-21G
 ****


