%nproc=1
%NoSave
%Mem=1900MB
#P OB98/GEN NMR

erre ene a

0 1
  C      498.620     -48.154     737.424
  O      499.924     -48.577     737.083
  P      501.188     -48.105     737.948
  C      501.446     -46.008     736.464
  O      502.079     -47.187     736.980
  C      502.390     -45.295     735.512
  O      503.570     -44.802     736.206
  C      502.947     -46.173     734.395
  O      502.029     -46.655     733.435
  C      504.083     -45.304     733.880
  O      503.646     -44.286     732.994
  C      504.616     -44.683     735.202
  N      505.873     -45.301     735.656
  C      506.867     -45.407     734.701
  O      506.752     -45.004     733.541
  N      508.039     -46.013     735.115
  C      508.255     -46.568     736.333
  O      509.296     -47.138     736.634
  C      507.139     -46.434     737.300
  C      506.016     -45.824     736.933
  O      501.942     -49.206     738.634
  O      500.563     -47.023     738.956
  H      503.270     -44.726     732.203
  H      500.140     -46.253     738.528
  H      508.767     -46.109     734.429
  H      507.300     -46.849     738.287
  H      505.187     -45.722     737.611
  H      504.805     -43.600     735.074
  H      504.828     -45.912     733.338
  H      503.387     -47.058     734.850
  H      501.871     -44.401     735.118
  H      501.206     -45.354     737.292
  H      500.508     -46.284     735.966
  P      501.642     -48.194     733.289
  C      503.820     -48.658     731.921
  O      502.401     -48.787     732.001
  O      500.193     -48.542     733.442
  O      502.488     -48.847     734.494
  H      501.985     -49.633     734.842
  H      504.158     -49.062     730.968
  H      504.281     -49.210     732.739
  H      504.088     -47.605     731.984
  H      497.918     -48.571     736.733
  H      498.569     -47.086     737.383
  H      498.385     -48.484     738.414

 3  4  5  6  7  8  9  10  11  12  13  23  28  29  30  31  32 0
 6-311+G(2d,p)
 ****
 33  34 0
 6-311+G(2d,p)
 ****
 1  2  14  15  16  17  18  19  20  21  22  24  25  26  27 0
 3-21G
 ****
 35  36  37  38  39  40  41  42  43  44  45 0
 3-21G
 ****


