%nproc=1
%NoSave
%Mem=1900MB
#P OB98/GEN NMR

erre ene a

0 1
  C      -13.861      11.846    -161.973
  O      -15.116      11.633    -161.357
  H      -13.815      12.877    -162.331
  H      -13.741      11.171    -162.825
  H      -13.054      11.683    -161.252
  P      -15.401      10.148    -160.817
  C      -16.307       9.171    -163.041
  O      -15.257       9.173    -162.085
  C      -16.158       7.987    -163.994
  O      -14.940       8.095    -164.759
  C      -16.126       6.625    -163.305
  O      -17.440       6.161    -163.041
  C      -15.403       5.784    -164.349
  O      -16.305       5.376    -165.401
  C      -14.355       6.769    -164.885
  N       -9.828       4.530    -164.768
  C      -10.934       4.266    -165.555
  N      -10.831       3.235    -166.424
  N      -12.050       4.944    -165.490
  C      -12.032       5.910    -164.540
  C      -11.004       6.265    -163.699
  C       -9.756       5.541    -163.818
  O       -8.716       5.779    -163.209
  N      -11.366       7.309    -162.884
  C      -12.621       7.558    -163.211
  N      -13.072       6.731    -164.207
  O      -16.979      10.150    -160.533
  O      -14.636       9.749    -159.600
  H      -15.796       4.956    -166.114
  H      -17.153       9.625    -159.729
  H       -8.986       3.993    -164.883
  H      -13.240       8.327    -162.763
  H      -14.149       6.606    -165.949
  H      -15.000       4.866    -163.916
  H      -10.133       2.512    -166.315
  H      -15.525       6.663    -162.390
  H      -11.666       2.998    -166.945
  H      -16.992       8.036    -164.710
  H      -16.265      10.104    -163.615
  H      -17.268       9.110    -162.523
  P      -17.711       5.409    -161.650
  C      -17.701       3.096    -162.832
  O      -17.171       3.902    -161.787
  O      -19.305       5.241    -161.641
  O      -17.244       6.149    -160.441
  H      -19.700       5.879    -161.014
  H      -17.250       2.126    -162.798
  H      -17.492       3.553    -163.776
  H      -18.760       3.002    -162.708

 6  7  8  9  10  11  12  13  14  15  26  29  33  34 0
 6-311+G(2d,p)
 ****
 36  38  39  40  41 0
 6-311+G(2d,p)
 ****
 1  2  3  4  5  16  17  18  19  20  21  22  23  24  25 0
 3-21G
 ****
 27  28  30  31  32  35  37  42  43  44  45  46  47 0
 3-21G
 ****
 48  49 0
 3-21G
 ****


