%nproc=1
%NoSave
%Mem=1900MB
#P OB98/GEN NMR

erre ene a

0 1
  C       43.663     -53.870     -31.000
  O       44.522     -53.288     -31.965
  P       44.925     -51.748     -31.760
  C       43.597     -49.514     -31.672
  O       43.569     -50.913     -31.936
  C       42.851     -48.752     -32.763
  O       43.551     -48.872     -34.015
  C       41.447     -49.267     -33.028
  O       40.555     -48.818     -32.028
  C       41.170     -48.688     -34.410
  O       40.647     -47.353     -34.316
  C       42.572     -48.687     -35.062
  N       42.706     -49.696     -36.100
  C       43.866     -49.616     -36.881
  O       44.684     -48.718     -36.681
  N       44.044     -50.530     -37.890
  C       43.142     -51.437     -38.101
  N       43.374     -52.320     -39.111
  C       41.898     -51.543     -37.314
  C       41.743     -50.645     -36.342
  O       45.750     -51.408     -33.085
  O       45.704     -51.467     -30.517
  H       41.369     -46.813     -33.931
  H       46.382     -50.682     -32.925
  H       41.178     -52.319     -37.531
  H       40.858     -50.650     -35.717
  H       42.782     -47.708     -35.511
  H       40.432     -49.280     -34.959
  H       41.442     -50.363     -33.079
  H       42.826     -47.690     -32.484
  H       44.232     -52.217     -39.637
  H       44.635     -49.171     -31.648
  H       42.744     -53.076     -39.340
  H       43.146     -49.329     -30.691
  P       39.619     -49.908     -31.320
  C       37.858     -51.549     -32.204
  O       38.586     -50.363     -32.457
  O       38.697     -48.999     -30.374
  O       40.297     -51.000     -30.562
  H       38.142     -49.566     -29.808
  H       37.089     -51.659     -32.972
  H       37.376     -51.502     -31.224
  H       38.527     -52.414     -32.249
  H       43.478     -54.892     -31.257
  H       42.737     -53.334     -30.978
  H       44.126     -53.823     -30.036

 3  4  5  6  7  8  9  10  11  12  13  21  23  27  28  29  30  32 0
 6-311+G(2d,p)
 ****
 34  35 0
 6-311+G(2d,p)
 ****
 1  2  14  15  16  17  18  19  20  22  24  25  26 0
 3-21G
 ****
 31  33  36  37  38  39  40  41  42  43  44  45  46 0
 3-21G
 ****


