%nproc=1
%NoSave
%Mem=1900MB
#P OB98/GEN NMR

erre ene a

0 1
  C       44.595    -719.762    -648.611
  O       44.413    -718.400    -648.937
  H       44.852    -720.314    -649.518
  H       43.662    -720.170    -648.202
  H       45.397    -719.885    -647.882
  P       44.289    -717.327    -647.763
  C       46.639    -716.297    -648.080
  O       45.783    -717.059    -647.226
  C       47.974    -716.017    -647.374
  O       47.699    -715.400    -646.088
  C       48.831    -717.276    -647.109
  O       50.198    -716.870    -647.186
  C       48.427    -717.594    -645.674
  O       49.313    -718.508    -645.090
  C       48.393    -716.180    -645.090
  N       47.742    -716.094    -643.797
  C       48.545    -716.113    -642.661
  O       49.770    -716.173    -642.702
  N       47.894    -716.086    -641.465
  C       46.544    -716.048    -641.271
  O       46.011    -715.996    -640.173
  C       45.730    -716.056    -642.511
  C       46.358    -716.077    -643.683
  O       43.283    -717.637    -646.698
  O       43.934    -715.962    -648.528
  H       42.963    -715.818    -648.492
  H       49.438    -719.290    -645.671
  H       48.474    -716.081    -640.632
  H       44.664    -716.043    -642.399
  H       45.788    -716.093    -644.615
  H       49.397    -715.767    -645.012
  H       47.435    -718.044    -645.647
  H       48.624    -718.081    -647.823
  H       48.538    -715.279    -647.974
  H       46.129    -715.358    -648.322
  H       46.812    -716.855    -649.004
  P       51.132    -717.161    -648.468
  C       52.265    -714.837    -648.518
  O       51.437    -715.756    -649.216
  O       50.592    -718.219    -649.371
  O       52.555    -717.596    -647.879
  H       52.950    -718.273    -648.455
  H       52.394    -713.954    -649.108
  H       53.219    -715.285    -648.334
  H       51.806    -714.580    -647.586

 6  7  8  9  10  11  12  13  14  15  16  27  31  32  33  34  35 0
 6-311+G(2d,p)
 ****
 36  37 0
 6-311+G(2d,p)
 ****
 1  2  3  4  5  17  18  19  20  21  22  23  24  25 0
 3-21G
 ****
 26  28  29  30  38  39  40  41  42  43  44  45 0
 3-21G
 ****


