%nproc=1
%NoSave
%Mem=1900MB
#P OB98/GEN NMR

erre ene a

0 1
  C      699.789    -212.061     -31.493
  O      701.094    -212.646     -31.619
  P      702.235    -211.746     -32.309
  C      703.925    -211.739     -30.302
  O      703.610    -212.197     -31.616
  C      704.689    -212.819     -29.536
  O      703.787    -213.866     -29.095
  C      705.748    -213.529     -30.364
  O      706.898    -212.710     -30.551
  C      705.991    -214.777     -29.522
  O      706.877    -214.473     -28.431
  C      704.569    -215.081     -29.000
  N      703.926    -216.191     -29.697
  C      703.826    -217.385     -28.982
  O      704.263    -217.521     -27.844
  N      703.203    -218.413     -29.630
  C      702.727    -218.378     -30.906
  O      702.189    -219.343     -31.440
  C      702.917    -217.121     -31.636
  C      703.501    -216.090     -31.006
  O      701.925    -210.310     -31.677
  O      702.206    -211.808     -33.803
  H      701.599    -210.360     -30.764
  H      707.738    -214.241     -28.840
  H      703.115    -219.288     -29.123
  H      702.576    -217.064     -32.655
  H      703.638    -215.148     -31.518
  H      704.604    -215.325     -27.925
  H      706.451    -215.593     -30.100
  H      705.340    -213.807     -31.342
  H      705.143    -212.359     -28.655
  H      703.003    -211.503     -29.758
  H      704.508    -210.823     -30.378
  P      707.933    -213.169     -31.688
  C      708.030    -210.902     -32.997
  O      708.698    -211.845     -32.181
  O      706.956    -213.525     -32.899
  O      708.830    -214.288     -31.257
  H      706.246    -212.866     -33.023
  H      708.550    -209.950     -32.942
  H      706.990    -210.768     -32.686
  H      708.052    -211.250     -34.032
  H      699.129    -212.759     -31.021
  H      699.413    -211.815     -32.464
  H      699.852    -211.173     -30.900

 3  4  5  6  7  8  9  10  11  12  13  24  28  29  30  31  32 0
 6-311+G(2d,p)
 ****
 33  34 0
 6-311+G(2d,p)
 ****
 1  2  14  15  16  17  18  19  20  21  22  23  25  26  27 0
 3-21G
 ****
 35  36  37  38  39  40  41  42  43  44  45 0
 3-21G
 ****


