%nproc=1
%NoSave
%Mem=1900MB
#P OB98/GEN NMR

erre ene a

0 1
  C     -109.241     -66.279      40.709
  O     -107.942     -65.944      41.206
  P     -106.884     -67.142      41.320
  C     -105.378     -66.235      39.407
  O     -105.472     -66.615      40.773
  C     -103.912     -66.093      39.000
  O     -103.773     -65.832      37.586
  C     -103.202     -64.937      39.693
  O     -102.905     -65.256      41.042
  C     -101.980     -64.774      38.796
  O     -100.988     -65.765      39.111
  C     -102.566     -65.053      37.402
  N     -100.946     -61.839      33.767
  C     -100.401     -62.959      34.289
  N     -100.895     -63.758      35.258
  C     -102.085     -63.307      35.685
  C     -102.766     -62.184      35.245
  C     -102.145     -61.426      34.239
  N     -102.693     -60.276      33.717
  N     -103.959     -62.041      35.923
  C     -103.986     -63.047      36.774
  N     -102.881     -63.846      36.660
  O     -107.367     -68.171      40.194
  O     -106.843     -67.780      42.669
  H     -100.495     -65.446      39.893
  H     -107.763     -68.959      40.610
  H      -99.440     -63.253      33.876
  H     -104.778     -63.236      37.488
  H     -101.887     -65.646      36.779
  H     -101.505     -63.793      38.893
  H     -103.821     -64.033      39.651
  H     -103.401     -67.036      39.232
  H     -105.902     -65.291      39.240
  H     -102.146     -59.749      33.055
  H     -103.543     -59.912      34.122
  H     -105.887     -66.989      38.797
  P     -102.775     -64.045      42.084
  C     -105.200     -64.060      42.931
  O     -103.856     -64.403      43.218
  O     -103.484     -62.856      41.288
  O     -101.392     -63.776      42.568
  H     -104.321     -63.143      40.879
  H     -105.828     -64.387      43.763
  H     -105.531     -64.560      42.017
  H     -105.294     -62.977      42.821
  H     -109.850     -65.400      40.681
  H     -109.693     -67.005      41.352
  H     -109.152     -66.683      39.722

 3  4  5  6  7  8  9  10  11  12  22  25  29  30  31  32 0
 6-311+G(2d,p)
 ****
 33  36  37 0
 6-311+G(2d,p)
 ****
 1  2  13  14  15  16  17  18  19  20  21  23  24  26 0
 3-21G
 ****
 27  28  34  35  38  39  40  41  42  43  44  45  46  47  48 0
 3-21G
 ****


