%nproc=1
%NoSave
%Mem=1900MB
#P OB98/GEN NMR

erre ene a

0 1
  C      469.912     -26.871     191.542
  O      469.965     -25.470     191.371
  P      470.610     -24.539     192.506
  C      468.464     -23.717     193.656
  O      469.629     -24.535     193.771
  C      468.381     -22.736     194.822
  O      468.892     -23.338     196.031
  C      469.205     -21.468     194.634
  O      468.618     -20.589     193.690
  C      469.257     -20.940     196.063
  O      468.051     -20.247     196.395
  C      469.362     -22.252     196.875
  N      470.715     -22.501     197.350
  C      471.198     -21.606     198.306
  O      470.531     -20.627     198.643
  N      472.439     -21.840     198.857
  C      473.175     -22.809     198.398
  N      474.365     -23.026     199.018
  C      472.760     -23.670     197.279
  C      471.522     -23.482     196.819
  O      471.054     -23.191     192.047
  O      471.861     -25.397     193.038
  H      472.652     -24.826     193.045
  H      468.127     -19.986     197.333
  H      473.439     -24.421     196.887
  H      471.122     -24.091     196.016
  H      468.683     -22.219     197.727
  H      470.092     -20.244     196.214
  H      470.216     -21.734     194.303
  H      467.322     -22.486     194.977
  H      474.605     -22.426     199.798
  H      467.580     -24.363     193.649
  H      474.852     -23.924     198.971
  H      468.498     -23.177     192.703
  P      469.444     -19.267     193.323
  C      468.951     -17.701     195.323
  O      469.875     -18.570     194.696
  O      468.324     -18.284     192.729
  O      470.548     -19.476     192.336
  H      468.696     -17.756     192.006
  H      469.233     -17.596     196.375
  H      467.928     -18.093     195.269
  H      468.995     -16.722     194.846
  H      469.451     -27.318     190.686
  H      469.341     -27.102     192.417
  H      470.905     -27.255     191.653

 3  4  5  6  7  8  9  10  11  12  13  24  27  28  29  30  32 0
 6-311+G(2d,p)
 ****
 34  35 0
 6-311+G(2d,p)
 ****
 1  2  14  15  16  17  18  19  20  21  22  23  25  26 0
 3-21G
 ****
 31  33  36  37  38  39  40  41  42  43  44  45  46 0
 3-21G
 ****


