%nproc=1
%NoSave
%Mem=1900MB
#P OB98/GEN NMR

erre ene a

0 1
  C      279.442    -177.723      93.275
  O      279.568    -176.900      94.413
  H      280.436    -177.881      92.848
  H      278.816    -177.224      92.530
  H      279.010    -178.694      93.527
  P      278.378    -176.876      95.480
  C      279.711    -178.290      97.177
  O      278.517    -178.175      96.416
  C      279.454    -178.083      98.671
  O      279.078    -176.711      98.914
  C      278.306    -178.953      99.192
  O      278.694    -180.253      99.604
  C      277.802    -178.131     100.376
  O      278.515    -178.459     101.581
  C      278.094    -176.688      99.955
  N      273.632    -174.534     101.221
  C      274.460    -175.329     101.992
  N      274.021    -175.606     103.238
  N      275.599    -175.808     101.563
  C      275.854    -175.526     100.266
  C      275.098    -174.771      99.398
  C      273.877    -174.181      99.901
  O      273.117    -173.458      99.266
  N      275.655    -174.737      98.142
  C      276.696    -175.544      98.233
  N      276.901    -175.981      99.519
  O      277.082    -177.223      94.600
  O      278.188    -175.579      96.207
  H      279.466    -178.311     101.419
  H      276.300    -176.778      94.977
  H      272.783    -174.169     101.613
  H      277.355    -175.804      97.412
  H      278.520    -176.107     100.783
  H      276.746    -178.336     100.571
  H      273.117    -175.334     103.588
  H      277.502    -179.015      98.454
  H      274.503    -176.335     103.767
  H      280.379    -178.267      99.227
  H      280.391    -177.522      96.808
  H      280.182    -179.261      97.001
  P      277.665    -181.476      99.537
  C      277.948    -182.074      96.995
  O      277.127    -181.602      98.042
  O      276.398    -180.926     100.344
  O      278.168    -182.766     100.095
  H      276.400    -181.259     101.259
  H      277.392    -182.079      96.081
  H      278.275    -183.068      97.219
  H      278.799    -181.433      96.892

 6  7  8  9  10  11  12  13  14  15  26  29  33  34 0
 6-311+G(2d,p)
 ****
 36  38  39  40  41 0
 6-311+G(2d,p)
 ****
 1  2  3  4  5  16  17  18  19  20  21  22  23  24  25 0
 3-21G
 ****
 27  28  30  31  32  35  37  42  43  44  45  46  47 0
 3-21G
 ****
 48  49 0
 3-21G
 ****


