%nproc=1
%NoSave
%Mem=1900MB
#P OB98/GEN NMR

erre ene a

0 1
  C      -67.278    -358.761     110.263
  O      -68.113    -357.735     110.787
  P      -67.407    -356.377     111.271
  C      -68.205    -356.938     113.677
  O      -67.112    -356.581     112.834
  C      -67.821    -358.093     114.592
  O      -67.136    -359.108     113.831
  C      -66.873    -357.721     115.718
  O      -67.552    -357.128     116.810
  C      -66.316    -359.089     116.095
  O      -67.239    -359.762     116.966
  C      -66.239    -359.796     114.734
  N      -61.904    -362.378     114.271
  C      -63.062    -362.708     114.944
  N      -63.078    -363.911     115.562
  N      -64.111    -361.932     115.010
  C      -63.969    -360.777     114.315
  C      -62.870    -360.340     113.612
  C      -61.697    -361.188     113.587
  O      -60.617    -360.919     113.061
  N      -63.105    -359.121     113.024
  C      -64.358    -358.845     113.337
  N      -64.912    -359.805     114.150
  O      -68.610    -355.322     111.256
  O      -66.259    -355.926     110.433
  H      -67.316    -359.224     117.774
  H      -68.255    -354.418     111.141
  H      -61.135    -363.022     114.238
  H      -64.894    -357.968     113.010
  H      -66.591    -360.836     114.809
  H      -65.359    -359.023     116.629
  H      -62.358    -364.605     115.435
  H      -66.059    -357.080     115.353
  H      -63.932    -364.189     116.029
  H      -68.742    -358.534     114.991
  H      -69.056    -357.240     113.052
  H      -68.499    -356.061     114.262
  P      -67.293    -355.558     117.056
  C      -66.850    -355.869     119.600
  O      -66.334    -355.487     118.336
  O      -68.706    -355.034     117.599
  O      -66.837    -354.818     115.844
  H      -68.808    -354.083     117.401
  H      -67.551    -356.710     119.507
  H      -67.361    -355.018     120.053
  H      -66.025    -356.176     120.242
  H      -67.878    -359.601     109.983
  H      -66.571    -359.061     111.008
  H      -66.757    -358.393     109.404

 3  4  5  6  7  8  9  10  11  12  23  26  30  31  33  0
 6-311+G(2d,p)
 ****
 35  36  37  38 0
 6-311+G(2d,p)
 ****
 1  2  13  14  15  16  17  18  19  20  21  22  24  25  27  28  29 0
 3-21G
 ****
 32  34  39  40  41  42  43  44  45  46  47  48  49 0
 3-21G
 ****


