%nproc=1
%NoSave
%Mem=1900MB
#P OB98/GEN NMR

erre ene a

0 1
  C      471.989     611.538     127.536
  O      472.744     611.717     128.721
  H      472.329     612.261     126.785
  H      470.923     611.719     127.721
  H      472.127     610.531     127.139
  P      472.326     610.880     130.014
  C      471.837     612.775     131.709
  O      471.292     611.812     130.818
  C      470.732     613.697     132.215
  O      470.291     614.594     131.175
  C      469.482     612.948     132.664
  O      469.679     612.328     133.921
  C      468.451     614.052     132.629
  O      468.531     614.880     133.803
  C      468.890     614.840     131.373
  N      468.116     614.478     130.184
  C      466.903     615.156     130.008
  O      466.532     616.001     130.820
  N      466.120     614.823     128.920
  C      466.532     613.928     128.077
  N      465.707     613.652     127.016
  C      467.810     613.203     128.214
  C      468.538     613.523     129.289
  O      473.435     610.327     130.861
  O      471.388     609.714     129.432
  H      467.931     615.630     133.641
  H      471.926     608.935     129.195
  H      468.109     612.461     127.487
  H      469.494     613.042     129.457
  H      468.776     615.923     131.539
  H      467.435     613.657     132.563
  H      469.198     612.198     131.914
  H      471.135     614.304     133.044
  H      464.844     614.168     126.975
  H      472.568     613.360     131.145
  H      465.951     613.045     126.262
  H      472.337     612.282     132.549
  P      468.594     611.332     134.535
  C      468.199     612.822     136.597
  O      467.615     612.244     135.433
  O      469.143     610.117     135.206
  O      467.664     610.988     133.254
  H      468.127     610.371     132.639
  H      467.464     613.403     137.114
  H      469.015     613.452     136.311
  H      468.556     612.045     137.240

 6  7  8  9  10  11  12  13  14  15  16  26  30  31  32  33  35 0
 6-311+G(2d,p)
 ****
 37  38 0
 6-311+G(2d,p)
 ****
 1  2  3  4  5  17  18  19  20  21  22  23  24  25 0
 3-21G
 ****
 27  28  29  34  36  39  40  41  42  43  44  45  46 0
 3-21G
 ****


