%nproc=1
%NoSave
%Mem=1900MB
#P OB98/GEN NMR

erre ene a

0 1
  C      150.138     -38.097     -11.248
  O      148.863     -38.581     -10.877
  H      150.360     -37.204     -10.657
  H      150.138     -37.826     -12.307
  H      150.908     -38.848     -11.055
  P      148.431     -40.004     -11.479
  C      149.769     -41.459      -9.797
  O      149.623     -41.023     -11.141
  C      149.717     -42.982      -9.728
  O      150.676     -43.559     -10.643
  C      150.041     -43.558      -8.354
  O      148.910     -43.539      -7.494
  C      150.421     -44.980      -8.730
  O      149.230     -45.748      -8.998
  C      151.215     -44.762     -10.024
  N      155.440     -46.912      -8.233
  C      154.143     -47.386      -8.253
  N      153.939     -48.604      -7.707
  N      153.133     -46.726      -8.755
  C      153.482     -45.516      -9.255
  C      154.731     -44.939      -9.297
  C      155.840     -45.683      -8.745
  O      157.012     -45.321      -8.724
  N      154.694     -43.706      -9.892
  C      153.423     -43.528     -10.192
  N      152.644     -44.595      -9.821
  O      148.566     -39.793     -13.063
  O      147.063     -40.466     -11.109
  H      148.771     -45.860      -8.147
  H      147.859     -40.298     -13.509
  H      156.179     -47.457      -7.824
  H      153.018     -42.651     -10.678
  H      151.086     -45.584     -10.737
  H      150.962     -45.496      -7.935
  H      154.664     -49.144      -7.260
  H      150.904     -43.057      -7.901
  H      153.004     -48.987      -7.739
  H      148.720     -43.301     -10.056
  H      148.955     -41.042      -9.194
  H      150.724     -41.096      -9.407
  P      149.144     -43.094      -5.967
  C      147.367     -41.231      -6.312
  O      148.688     -41.558      -5.892
  O      150.738     -43.012      -5.857
  O      148.555     -44.006      -4.947
  H      151.014     -43.111      -4.925
  H      147.209     -40.178      -6.205
  H      146.660     -41.761      -5.709
  H      147.240     -41.509      -7.337

 6  7  8  9  10  11  12  13  14  15  26  29  33  34 0
 6-311+G(2d,p)
 ****
 36  38  39  40  41 0
 6-311+G(2d,p)
 ****
 1  2  3  4  5  16  17  18  19  20  21  22  23  24  25 0
 3-21G
 ****
 27  28  30  31  32  35  37  42  43  44  45  46  47 0
 3-21G
 ****
 48  49 0
 3-21G
 ****


