%nproc=1
%NoSave
%Mem=1900MB
#P OB98/GEN NMR

erre ene a

0 1
  C       -0.649     163.611      35.942
  O        0.132     162.456      35.635
  P       -0.602     161.049      35.414
  C        1.065     160.214      33.633
  O        0.474     159.975      34.901
  C        2.250     161.185      33.752
  O        3.182     160.702      34.757
  C        3.022     161.352      32.435
  O        3.213     162.717      32.067
  C        4.286     160.541      32.659
  O        5.363     160.953      31.832
  C        4.496     160.656      34.174
  N        5.298     159.547      34.701
  C        6.658     159.573      34.423
  O        7.182     160.426      33.707
  N        7.398     158.547      34.944
  C        6.906     157.479      35.634
  O        7.604     156.559      36.041
  C        5.450     157.471      35.844
  C        4.726     158.490      35.375
  O       -1.872     161.095      34.633
  O       -0.883     160.556      36.918
  H        5.138     160.738      30.901
  H       -1.760     160.125      36.933
  H        8.390     158.561      34.766
  H        5.022     156.629      36.367
  H        3.652     158.504      35.503
  H        5.019     161.583      34.428
  H        4.072     159.494      32.413
  H        2.466     160.928      31.591
  H        1.850     162.147      34.084
  H        0.322     160.645      32.962
  H        1.365     159.260      33.186
  P        2.669     163.376      30.715
  C        2.222     165.799      31.517
  O        3.025     164.936      30.737
  O        1.256     163.059      30.359
  O        3.663     162.788      29.603
  H        3.153     162.570      28.801
  H        2.347     166.820      31.148
  H        2.552     165.760      32.559
  H        1.166     165.526      31.455
  H       -0.004     164.457      36.056
  H       -1.187     163.446      36.852
  H       -1.341     163.795      35.147

 3  4  5  6  7  8  9  10  11  12  13  23  28  29  30  31  32 0
 6-311+G(2d,p)
 ****
 33  34 0
 6-311+G(2d,p)
 ****
 1  2  14  15  16  17  18  19  20  21  22  24  25  26  27 0
 3-21G
 ****
 35  36  37  38  39  40  41  42  43  44  45 0
 3-21G
 ****


