%nproc=1
%NoSave
%Mem=1900MB
#P OB98/GEN NMR

erre ene a

0 1
  C      -72.187    -748.781     359.630
  O      -72.934    -747.985     360.571
  P      -72.926    -746.377     360.569
  C      -74.354    -746.207     358.416
  O      -74.236    -745.867     359.801
  C      -75.759    -745.910     357.901
  O      -76.717    -746.818     358.482
  C      -76.305    -744.526     358.245
  O      -75.689    -743.499     357.484
  C      -77.790    -744.713     357.968
  O      -78.102    -744.522     356.581
  C      -78.013    -746.191     358.353
  N      -78.790    -746.353     359.572
  C      -80.141    -745.970     359.509
  O      -80.595    -745.463     358.488
  N      -80.928    -746.171     360.610
  C      -80.396    -746.606     361.722
  N      -81.230    -746.797     362.777
  C      -78.952    -746.878     361.870
  C      -78.218    -746.749     360.770
  O      -71.655    -745.777     360.056
  O      -73.185    -745.958     362.092
  H      -72.804    -745.077     362.253
  H      -78.014    -743.570     356.405
  H      -78.548    -747.204     362.814
  H      -77.155    -746.941     360.778
  H      -78.517    -746.724     357.535
  H      -78.411    -744.006     358.535
  H      -76.153    -744.340     359.314
  H      -75.762    -746.057     356.808
  H      -82.215    -746.609     362.642
  H      -74.149    -747.279     358.299
  H      -80.921    -747.154     363.671
  H      -73.598    -745.655     357.851
  P      -75.000    -742.303     358.303
  C      -73.496    -741.520     356.330
  O      -74.534    -741.200     357.232
  O      -73.631    -742.942     358.819
  O      -75.820    -741.770     359.434
  H      -73.438    -742.627     359.720
  H      -73.618    -740.920     355.428
  H      -73.505    -742.582     356.073
  H      -72.532    -741.266     356.792
  H      -72.352    -749.819     359.831
  H      -71.144    -748.560     359.725
  H      -72.511    -748.555     358.636

 3  4  5  6  7  8  9  10  11  12  13  24  27  28  29  30  32 0
 6-311+G(2d,p)
 ****
 34  35 0
 6-311+G(2d,p)
 ****
 1  2  14  15  16  17  18  19  20  21  22  23  25  26 0
 3-21G
 ****
 31  33  36  37  38  39  40  41  42  43  44  45  46 0
 3-21G
 ****


