%nproc=1
%NoSave
%Mem=1900MB
#P OB98/GEN NMR

erre ene a

0 1
  C     -186.438      -2.948    1333.877
  O     -187.425      -2.052    1334.350
  H     -186.412      -2.901    1332.784
  H     -186.681      -3.971    1334.178
  H     -185.453      -2.671    1334.260
  P     -187.560      -1.810    1335.925
  C     -189.094      -3.755    1336.651
  O     -188.999      -2.362    1336.360
  C     -189.947      -3.964    1337.899
  O     -189.258      -3.449    1339.066
  C     -191.294      -3.250    1337.857
  O     -192.213      -3.927    1337.025
  C     -191.659      -3.228    1339.334
  O     -192.212      -4.489    1339.735
  C     -190.281      -2.997    1339.994
  N     -190.062      -1.610    1340.378
  C     -190.565      -1.219    1341.622
  O     -191.203      -1.973    1342.350
  N     -190.352       0.094    1341.969
  C     -189.791       1.047    1341.174
  O     -189.699       2.224    1341.501
  C     -189.292       0.592    1339.865
  C     -189.451      -0.696    1339.538
  O     -187.245      -0.427    1336.399
  O     -186.554      -2.886    1336.561
  H     -192.591      -4.355    1340.628
  H     -185.746      -2.434    1336.866
  H     -190.717       0.397    1342.856
  H     -188.839       1.320    1339.215
  H     -189.099      -1.051    1338.569
  H     -190.185      -3.619    1340.893
  H     -192.394      -2.464    1339.564
  H     -191.153      -2.210    1337.513
  H     -190.084      -5.046    1338.039
  H     -188.089      -4.145    1336.826
  H     -189.532      -4.268    1335.789
  P     -193.026      -3.128    1335.902
  C     -194.244      -1.578    1337.541
  O     -194.381      -2.600    1336.570
  O     -193.178      -3.836    1334.598
  O     -192.176      -1.779    1335.713
  H     -191.860      -1.721    1334.788
  H     -195.210      -1.309    1337.914
  H     -193.782      -0.722    1337.095
  H     -193.636      -1.931    1338.348

 6  7  8  9  10  11  12  13  14  15  16  26  31  32  33  34  35 0
 6-311+G(2d,p)
 ****
 36  37 0
 6-311+G(2d,p)
 ****
 1  2  3  4  5  17  18  19  20  21  22  23  24  25 0
 3-21G
 ****
 27  28  29  30  38  39  40  41  42  43  44  45 0
 3-21G
 ****


