%nproc=1
%NoSave
%Mem=1900MB
#P OB98/GEN NMR

erre ene a

0 1
  C     -129.194      32.821      -0.793
  O     -129.798      31.618      -0.363
  H     -129.928      33.398      -1.362
  H     -128.344      32.598      -1.443
  H     -128.864      33.416       0.062
  P     -128.955      30.717       0.662
  C     -130.649      31.090       2.593
  O     -129.314      31.245       2.135
  C     -130.726      29.962       3.618
  O     -130.333      28.709       3.018
  C     -129.822      30.155       4.831
  O     -130.417      31.002       5.804
  C     -129.723      28.725       5.335
  O     -130.932      28.371       6.036
  C     -129.619      27.936       4.023
  N     -125.535      24.964       4.448
  C     -126.758      24.889       5.087
  N     -126.911      23.883       5.974
  N     -127.741      25.726       4.881
  C     -127.441      26.688       3.976
  C     -126.269      26.865       3.276
  C     -125.194      25.929       3.508
  O     -124.100      25.935       2.952
  N     -126.344      27.947       2.439
  C     -127.550      28.435       2.645
  N     -128.255      27.712       3.575
  O     -127.449      31.222       0.448
  O     -129.067      29.244       0.461
  H     -131.201      29.156       6.546
  H     -126.846      30.460       0.543
  H     -124.808      24.301       4.652
  H     -127.960      29.304       2.149
  H     -130.101      26.954       4.088
  H     -128.895      28.580       6.030
  H     -126.179      23.235       6.217
  H     -128.826      30.509       4.539
  H     -127.810      23.788       6.431
  H     -131.774      29.862       3.930
  H     -131.296      30.850       1.743
  H     -130.983      32.030       3.041
  P     -129.449      31.668       6.901
  C     -129.045      33.307       4.928
  O     -128.507      32.680       6.087
  O     -128.460      30.470       7.283
  O     -130.142      32.229       8.095
  H     -128.078      30.622       8.169
  H     -128.307      33.949       4.494
  H     -129.903      33.885       5.201
  H     -129.329      32.559       4.217

 6  7  8  9  10  11  12  13  14  15  26  29  33  34 0
 6-311+G(2d,p)
 ****
 36  38  39  40  41 0
 6-311+G(2d,p)
 ****
 1  2  3  4  5  16  17  18  19  20  21  22  23  24  25 0
 3-21G
 ****
 27  28  30  31  32  35  37  42  43  44  45  46  47 0
 3-21G
 ****
 48  49 0
 3-21G
 ****


