%nproc=1
%NoSave
%Mem=1900MB
#P OB98/GEN NMR

erre ene a

0 1
  C      -36.246      16.866    -147.360
  O      -36.473      18.103    -148.002
  H      -35.585      17.029    -146.506
  H      -35.758      16.171    -148.050
  H      -37.187      16.438    -147.003
  P      -37.544      18.131    -149.196
  C      -37.491      17.408    -151.689
  O      -36.916      17.270    -150.398
  C      -36.821      16.448    -152.675
  O      -35.465      16.904    -152.926
  C      -36.745      15.003    -152.171
  O      -36.971      14.122    -153.275
  C      -35.309      14.863    -151.697
  O      -34.854      13.510    -151.719
  C      -34.573      15.806    -152.656
  N      -33.307      16.264    -152.091
  C      -32.173      16.130    -152.898
  O      -32.268      15.638    -154.026
  N      -30.951      16.500    -152.394
  C      -30.857      16.886    -151.161
  N      -29.613      17.211    -150.709
  C      -32.016      16.979    -150.250
  C      -33.198      16.664    -150.779
  O      -37.457      19.633    -149.737
  O      -38.935      17.741    -148.816
  H      -35.326      13.038    -152.439
  H      -38.320      19.937    -150.078
  H      -31.882      17.282    -149.221
  H      -34.104      16.693    -150.185
  H      -34.369      15.302    -153.612
  H      -35.227      15.228    -150.667
  H      -37.465      14.785    -151.377
  H      -37.356      16.501    -153.629
  H      -28.842      17.118    -151.359
  H      -37.340      18.435    -152.038
  H      -29.416      17.482    -149.757
  H      -38.566      17.208    -151.633
  P      -38.501      13.860    -153.685
  C      -40.568      12.902    -152.441
  O      -39.155      12.892    -152.587
  O      -38.379      12.932    -154.985
  O      -39.269      15.110    -153.968
  H      -38.627      13.440    -155.781
  H      -40.852      12.210    -151.676
  H      -41.024      12.618    -153.366
  H      -40.892      13.885    -152.170

 6  7  8  9  10  11  12  13  14  15  16  26  30  31  32  33  35 0
 6-311+G(2d,p)
 ****
 37  38 0
 6-311+G(2d,p)
 ****
 1  2  3  4  5  17  18  19  20  21  22  23  24  25 0
 3-21G
 ****
 27  28  29  34  36  39  40  41  42  43  44  45  46 0
 3-21G
 ****


