%nproc=1
%NoSave
%Mem=1900MB
#P OB98/GEN NMR

erre ene a

0 1
  C      -63.866    -396.901    -140.464
  O      -64.814    -395.821    -140.519
  P      -65.716    -395.634    -141.836
  C      -67.826    -394.201    -142.419
  O      -66.645    -394.341    -141.643
  C      -68.684    -393.054    -141.878
  O      -69.200    -393.386    -140.566
  C      -67.930    -391.743    -141.685
  O      -67.716    -391.068    -142.915
  C      -68.861    -390.997    -140.738
  O      -69.928    -390.359    -141.463
  C      -69.407    -392.140    -139.860
  N      -68.800    -392.176    -138.534
  C      -69.543    -391.615    -137.499
  O      -70.631    -391.066    -137.669
  N      -68.976    -391.684    -136.255
  C      -67.736    -392.181    -135.961
  O      -67.277    -392.196    -134.830
  C      -66.965    -392.682    -137.110
  C      -67.522    -392.652    -138.324
  O      -66.776    -396.829    -141.684
  O      -64.990    -395.732    -143.138
  H      -70.475    -389.890    -140.803
  H      -67.081    -397.107    -142.569
  H      -69.510    -391.313    -135.485
  H      -65.968    -393.063    -136.922
  H      -66.964    -393.019    -139.181
  H      -70.495    -392.041    -139.743
  H      -68.345    -390.214    -140.171
  H      -66.979    -391.930    -141.176
  H      -69.535    -392.911    -142.557
  H      -68.400    -395.131    -142.374
  H      -67.546    -394.011    -143.461
  P      -66.187    -390.795    -143.329
  C      -65.048    -390.837    -145.682
  O      -66.211    -390.598    -144.918
  O      -65.545    -392.245    -143.098
  O      -65.552    -389.699    -142.536
  H      -66.174    -392.960    -143.294
  H      -64.447    -391.642    -145.254
  H      -64.450    -389.919    -145.730
  H      -65.346    -391.120    -146.698
  H      -63.354    -396.879    -139.524
  H      -63.157    -396.794    -141.259
  H      -64.381    -397.833    -140.568

 3  4  5  6  7  8  9  10  11  12  13  23  28  29  30  31  32 0
 6-311+G(2d,p)
 ****
 33  34 0
 6-311+G(2d,p)
 ****
 1  2  14  15  16  17  18  19  20  21  22  24  25  26 0
 3-21G
 ****
 27  35  36  37  38  39  40  41  42  43  44  45 0
 3-21G
 ****


