%nproc=1
%NoSave
%Mem=1900MB
#P OB98/GEN NMR

erre ene a

0 1
  C      312.424    -850.929     217.889
  O      311.502    -851.138     218.946
  H      312.376    -851.785     217.208
  H      313.446    -850.873     218.287
  H      312.179    -850.019     217.348
  P      311.461    -850.013     220.083
  C      308.859    -850.111     220.084
  O      310.059    -850.207     220.856
  C      307.642    -850.147     221.010
  O      307.758    -849.133     222.035
  C      306.323    -849.905     220.311
  O      305.814    -851.080     219.703
  C      305.445    -849.420     221.460
  O      304.956    -850.528     222.236
  C      306.432    -848.574     222.273
  N      303.643    -844.351     222.323
  C      303.361    -845.610     222.796
  N      302.128    -845.793     223.310
  N      304.201    -846.621     222.758
  C      305.398    -846.297     222.173
  C      305.793    -845.089     221.675
  C      304.858    -843.972     221.754
  O      305.080    -842.808     221.399
  N      307.074    -845.148     221.180
  C      307.415    -846.424     221.356
  N      306.417    -847.155     221.940
  O      311.234    -848.658     219.253
  O      312.669    -849.923     220.959
  H      304.581    -851.205     221.631
  H      311.652    -847.911     219.734
  H      302.967    -843.619     222.383
  H      308.389    -846.827     221.075
  H      306.242    -848.634     223.352
  H      304.573    -848.870     221.089
  H      301.354    -845.199     223.068
  H      306.414    -849.097     219.540
  H      301.908    -846.737     223.647
  H      307.639    -851.124     221.515
  H      308.803    -850.963     219.390
  H      308.878    -849.188     219.517
  P      305.365    -851.017     218.182
  C      306.813    -853.070     217.485
  O      305.516    -852.508     217.583
  O      306.532    -850.217     217.456
  O      304.021    -850.384     217.952
  H      306.239    -849.879     216.576
  H      306.745    -854.055     217.072
  H      307.254    -853.121     218.459
  H      307.420    -852.458     216.850

 6  7  8  9  10  11  12  13  14  15  26  29  33  34 0
 6-311+G(2d,p)
 ****
 36  38  39  40  41 0
 6-311+G(2d,p)
 ****
 1  2  3  4  5  16  17  18  19  20  21  22  23  24  25 0
 3-21G
 ****
 27  28  30  31  32  35  37  42  43  44  45  46  47 0
 3-21G
 ****
 48  49 0
 3-21G
 ****


