%nproc=1
%NoSave
%Mem=1900MB
#P OB98/GEN NMR

erre ene a

0 1
  C      269.859     599.241     -85.312
  O      268.456     599.136     -85.490
  P      267.935     598.454     -86.844
  C      266.428     600.552     -87.133
  O      266.521     599.130     -87.155
  C      265.126     601.016     -87.772
  O      265.027     600.497     -89.111
  C      263.873     600.545     -87.055
  O      263.643     601.320     -85.896
  C      262.820     600.711     -88.140
  O      262.293     602.053     -88.138
  C      263.616     600.432     -89.432
  N      263.265     599.160     -90.040
  C      262.845     599.223     -91.377
  O      262.770     600.311     -91.953
  N      262.479     598.053     -92.005
  C      262.530     596.935     -91.357
  N      262.158     595.807     -92.032
  C      262.944     596.827     -89.946
  C      263.294     597.973     -89.353
  O      267.553     596.972     -86.386
  O      268.924     598.462     -87.968
  H      261.531     602.033     -88.759
  H      267.614     596.347     -87.127
  H      262.970     595.867     -89.451
  H      263.616     597.986     -88.316
  H      263.433     601.226     -90.173
  H      261.971     600.036     -87.992
  H      263.965     599.481     -86.788
  H      265.140     602.119     -87.841
  H      261.870     595.912     -92.998
  H      267.269     600.981     -87.683
  H      262.187     594.885     -91.622
  H      266.491     600.893     -86.091
  P      264.231     600.783     -84.507
  C      262.434     600.701     -82.685
  O      263.359     601.509     -83.382
  O      265.630     601.571     -84.405
  O      264.409     599.309     -84.368
  H      266.140     601.246     -83.641
  H      262.020     601.270     -81.847
  H      262.922     599.803     -82.291
  H      261.615     600.410     -83.353
  H      270.065     599.712     -84.374
  H      270.276     599.827     -86.104
  H      270.294     598.264     -85.324

 3  4  5  6  7  8  9  10  11  12  13  21  23  27  28  29  30  32 0
 6-311+G(2d,p)
 ****
 34  35 0
 6-311+G(2d,p)
 ****
 1  2  14  15  16  17  18  19  20  22  24  25  26 0
 3-21G
 ****
 31  33  36  37  38  39  40  41  42  43  44  45  46 0
 3-21G
 ****


