%nproc=1
%NoSave
%Mem=1900MB
#P OB98/GEN NMR

erre ene a

0 1
  C     -159.203     488.861     402.878
  O     -160.516     488.431     403.160
  H     -158.838     488.315     402.003
  H     -158.551     488.638     403.727
  H     -159.173     489.930     402.660
  P     -161.406     489.283     404.181
  C     -162.502     490.714     402.334
  O     -162.705     489.770     403.379
  C     -163.791     490.917     401.525
  O     -163.651     492.106     400.704
  C     -164.046     489.743     400.570
  O     -165.432     489.561     400.304
  C     -163.351     490.187     399.295
  O     -163.856     489.547     398.129
  C     -163.600     491.698     399.327
  N     -162.630     495.248     395.803
  C     -163.818     494.604     396.088
  N     -164.889     494.960     395.335
  N     -163.944     493.684     397.007
  C     -162.774     493.388     397.632
  C     -161.532     493.937     397.418
  C     -161.418     494.983     396.420
  O     -160.386     495.568     396.113
  N     -160.584     493.372     398.237
  C     -161.251     492.473     398.939
  N     -162.590     492.462     398.622
  O     -160.576     490.643     404.358
  O     -161.678     488.631     405.503
  H     -164.742     489.917     397.954
  H     -160.819     491.083     405.193
  H     -162.597     495.969     395.103
  H     -160.819     491.823     399.687
  H     -164.572     491.936     398.874
  H     -162.287     489.935     399.374
  H     -164.790     495.507     394.498
  H     -163.631     488.808     400.935
  H     -165.665     494.292     395.315
  H     -164.637     491.095     402.202
  H     -161.710     490.314     401.695
  H     -162.147     491.663     402.742
  P     -166.190     488.322     400.981
  C     -167.167     488.759     403.406
  O     -167.299     488.855     402.003
  O     -165.083     487.675     401.930
  O     -166.747     487.333     400.010
  H     -164.856     486.772     401.623
  H     -168.031     489.181     403.875
  H     -166.294     489.293     403.719
  H     -167.076     487.730     403.686

 6  7  8  9  10  11  12  13  14  15  26  29  33  34 0
 6-311+G(2d,p)
 ****
 36  38  39  40  41 0
 6-311+G(2d,p)
 ****
 1  2  3  4  5  16  17  18  19  20  21  22  23  24  25 0
 3-21G
 ****
 27  28  30  31  32  35  37  42  43  44  45  46  47 0
 3-21G
 ****
 48  49 0
 3-21G
 ****


