%nproc=1
%NoSave
%Mem=1900MB
#P OB98/GEN NMR

erre ene a

0 1
  C      236.206    -290.976    -140.636
  O      235.966    -289.735    -139.959
  P      234.545    -289.026    -140.182
  C      233.730    -290.109    -137.962
  O      233.787    -288.936    -138.766
  C      233.026    -289.838    -136.620
  O      233.629    -288.705    -135.939
  C      231.532    -289.509    -136.773
  O      230.851    -289.970    -135.596
  C      231.528    -287.995    -136.788
  O      230.227    -287.471    -136.490
  C      232.605    -287.701    -135.749
  N      232.549    -283.027    -133.853
  C      231.819    -284.148    -133.487
  N      230.983    -284.001    -132.440
  N      231.912    -285.303    -134.097
  C      232.824    -285.297    -135.104
  C      233.596    -284.261    -135.566
  C      233.468    -282.984    -134.899
  O      234.076    -281.947    -135.181
  N      234.383    -284.647    -136.620
  C      234.073    -285.920    -136.806
  N      233.166    -286.369    -135.886
  O      233.709    -290.149    -140.977
  O      234.618    -287.752    -140.957
  H      230.082    -287.583    -135.524
  H      233.597    -289.869    -141.910
  H      232.432    -282.155    -133.358
  H      234.484    -286.553    -137.582
  H      232.231    -287.793    -134.718
  H      231.819    -287.630    -137.781
  H      230.899    -283.155    -131.895
  H      231.052    -289.947    -137.656
  H      230.462    -284.819    -132.129
  H      233.150    -290.717    -135.982
  H      234.740    -290.482    -137.769
  H      233.223    -290.901    -138.523
  P      229.408    -290.632    -135.800
  C      229.984    -293.145    -136.093
  O      229.521    -292.126    -135.234
  O      229.306    -290.838    -137.390
  O      228.266    -289.825    -135.268
  H      228.377    -290.857    -137.669
  H      231.027    -293.381    -135.846
  H      229.923    -292.851    -137.149
  H      229.366    -294.043    -135.951
  H      237.187    -291.330    -140.396
  H      236.130    -290.826    -141.693
  H      235.480    -291.698    -140.325

 3  4  5  6  7  8  9  10  11  12  23  26  30  31 0
 6-311+G(2d,p)
 ****
 33  35  36  37  38 0
 6-311+G(2d,p)
 ****
 1  2  13  14  15  16  17  18  19  20  21  22  24  25 0
 3-21G
 ****
 27  28  29  32  34  39  40  41  42  43  44  45  46  47  48  49 0
 3-21G
 ****


