%nproc=1
%NoSave
%Mem=1900MB
#P OB98/GEN NMR

erre ene a

0 1
  C     -866.640    2051.011    1283.123
  O     -865.810    2049.862    1282.894
  P     -865.377    2049.023    1284.183
  C     -862.834    2049.619    1284.409
  O     -863.798    2048.678    1284.003
  C     -861.439    2049.138    1284.056
  O     -861.191    2047.867    1284.629
  C     -861.186    2048.978    1282.535
  O     -861.014    2050.214    1281.885
  C     -859.963    2048.069    1282.562
  O     -858.778    2048.875    1282.821
  C     -860.254    2047.150    1283.790
  N     -859.417    2042.829    1281.135
  C     -858.681    2043.937    1281.305
  N     -858.950    2045.082    1282.004
  C     -860.168    2044.949    1282.561
  C     -861.076    2043.880    1282.481
  C     -860.676    2042.807    1281.723
  N     -861.411    2041.667    1281.554
  N     -862.230    2044.175    1283.169
  C     -862.032    2045.377    1283.676
  N     -860.829    2045.864    1283.362
  O     -866.097    2047.613    1283.954
  O     -865.720    2049.632    1285.523
  H     -858.015    2048.245    1282.898
  H     -866.381    2047.215    1284.813
  H     -857.705    2043.936    1280.827
  H     -862.770    2045.895    1284.330
  H     -859.346    2046.950    1284.357
  H     -859.795    2047.537    1281.595
  H     -862.042    2048.410    1282.075
  H     -860.711    2049.895    1284.453
  H     -862.906    2049.760    1285.497
  H     -861.122    2040.973    1280.861
  H     -862.371    2041.698    1281.875
  H     -863.060    2050.603    1283.942
  P     -862.187    2050.695    1280.902
  C     -860.420    2051.311    1279.124
  O     -861.462    2051.756    1279.952
  O     -863.099    2051.584    1281.876
  O     -862.880    2049.578    1280.187
  H     -862.556    2052.236    1282.359
  H     -860.038    2052.132    1278.536
  H     -860.789    2050.499    1278.478
  H     -859.594    2050.927    1279.740
  H     -866.860    2051.484    1282.189
  H     -866.127    2051.701    1283.760
  H     -867.552    2050.705    1283.591

 3  4  5  6  7  8  9  10  11  12  22  25  29  30  31  32 0
 6-311+G(2d,p)
 ****
 33  36  37 0
 6-311+G(2d,p)
 ****
 1  2  13  14  15  16  17  18  19  20  21  23  24  26 0
 3-21G
 ****
 27  28  34  35  38  39  40  41  42  43  44  45  46  47  48 0
 3-21G
 ****


