%nproc=1
%NoSave
%Mem=1900MB
#P OB98/GEN NMR

erre ene a

0 1
  C     -296.889     203.183    -219.716
  O     -296.044     202.419    -218.870
  P     -294.722     203.061    -218.239
  C     -295.134     201.682    -216.118
  O     -294.185     202.047    -217.112
  C     -294.509     200.779    -215.056
  O     -294.129     199.513    -215.667
  C     -293.250     201.350    -214.386
  O     -293.261     200.893    -213.027
  C     -292.121     200.671    -215.147
  O     -290.893     200.674    -214.431
  C     -292.735     199.295    -215.359
  N     -288.542     196.744    -216.808
  C     -288.849     197.398    -215.669
  N     -289.977     198.075    -215.365
  C     -290.846     198.033    -216.395
  C     -290.662     197.425    -217.628
  C     -289.455     196.735    -217.820
  N     -289.138     196.035    -218.962
  N     -291.764     197.648    -218.438
  C     -292.586     198.366    -217.704
  N     -292.100     198.572    -216.445
  O     -294.853     204.480    -217.790
  O     -293.635     202.923    -219.399
  H     -291.058     200.347    -213.528
  H     -293.466     203.796    -219.807
  H     -288.085     197.377    -214.897
  H     -293.536     198.770    -218.034
  H     -292.677     198.671    -214.460
  H     -291.958     201.193    -216.097
  H     -293.185     202.445    -214.423
  H     -295.273     200.553    -214.299
  H     -295.950     201.139    -216.611
  H     -288.303     195.468    -218.940
  H     -289.890     195.790    -219.608
  H     -295.549     202.582    -215.649
  P     -292.438     201.695    -211.902
  C     -294.176     202.022    -210.057
  O     -293.061     201.266    -210.490
  O     -292.309     203.166    -212.138
  O     -291.004     200.974    -211.903
  H     -290.347     201.547    -211.464
  H     -293.828     202.960    -209.616
  H     -294.718     201.451    -209.294
  H     -294.850     202.250    -210.885
  H     -297.714     202.581    -220.034
  H     -296.336     203.510    -220.571
  H     -297.254     204.034    -219.181

 3  4  5  6  7  8  9  10  11  12  22  25  29  30  31  32 0
 6-311+G(2d,p)
 ****
 33  36  37 0
 6-311+G(2d,p)
 ****
 1  2  13  14  15  16  17  18  19  20  21  23  24  26 0
 3-21G
 ****
 27  28  34  35  38  39  40  41  42  43  44  45  46  47  48 0
 3-21G
 ****


