%nproc=1
%NoSave
%Mem=1900MB
#P OB98/GEN NMR

erre ene a

0 1
  C       26.401      28.836    -192.834
  O       27.018      27.562    -192.826
  P       26.925      26.619    -194.116
  C       29.200      27.388    -195.120
  O       27.798      27.311    -195.267
  C       29.918      26.673    -196.272
  O       29.555      27.344    -197.505
  C       31.442      26.720    -196.206
  O       31.966      25.701    -197.059
  C       31.737      28.081    -196.798
  O       33.080      28.188    -197.262
  C       30.644      28.216    -197.890
  N       30.169      29.606    -198.011
  C       31.080      30.543    -198.489
  O       32.209      30.243    -198.875
  N       30.681      31.851    -198.430
  C       29.502      32.291    -197.903
  O       29.292      33.453    -197.577
  C       28.495      31.250    -197.641
  C       28.878      29.971    -197.680
  O       25.415      26.831    -194.602
  O       27.231      25.181    -193.868
  H       33.228      29.136    -197.489
  H       24.848      26.114    -194.260
  H       31.394      32.538    -198.641
  H       27.498      31.563    -197.364
  H       28.169      29.182    -197.440
  H       31.019      27.899    -198.871
  H       31.592      28.847    -196.026
  H       31.850      26.618    -195.196
  H       29.565      25.638    -196.334
  H       29.486      26.952    -194.158
  H       29.523      28.435    -195.094
  P       33.381      25.054    -196.673
  C       32.037      22.994    -195.932
  O       33.070      23.900    -195.602
  O       34.456      26.014    -196.290
  O       33.767      24.220    -197.987
  H       34.724      24.031    -197.988
  H       32.249      22.031    -195.462
  H       31.959      22.851    -197.014
  H       31.088      23.376    -195.547
  H       26.567      29.319    -191.894
  H       25.349      28.722    -192.995
  H       26.820      29.430    -193.619

 3  4  5  6  7  8  9  10  11  12  13  23  28  29  30  31  32 0
 6-311+G(2d,p)
 ****
 33  34 0
 6-311+G(2d,p)
 ****
 1  2  14  15  16  17  18  19  20  21  22  24  25  26  27 0
 3-21G
 ****
 35  36  37  38  39  40  41  42  43  44  45 0
 3-21G
 ****


