%nproc=1
%NoSave
%Mem=1900MB
#P OB98/GEN NMR

erre ene a

0 1
  C       56.682     -65.775     195.896
  O       57.107     -65.951     197.233
  P       58.659     -65.919     197.619
  C       60.708     -64.510     197.006
  O       59.399     -64.906     196.622
  C       61.686     -64.606     195.835
  O       61.876     -66.001     195.480
  C       61.231     -63.859     194.575
  O       62.398     -63.276     193.981
  C       60.686     -64.969     193.696
  O       60.668     -64.613     192.321
  C       61.633     -66.115     194.064
  N       61.087     -67.419     193.723
  C       61.653     -68.074     192.626
  O       62.478     -67.496     191.920
  N       61.256     -69.361     192.357
  C       60.250     -69.868     193.002
  N       59.932     -71.167     192.751
  C       59.468     -69.106     193.996
  C       59.962     -67.918     194.337
  O       59.309     -67.259     197.735
  O       58.701     -65.142     199.020
  H       59.185     -65.685     199.672
  H       60.233     -65.329     191.815
  H       58.566     -69.526     194.416
  H       59.475     -67.295     195.078
  H       62.600     -65.994     193.559
  H       59.659     -65.207     194.000
  H       60.503     -63.071     194.788
  H       62.658     -64.221     196.170
  H       60.517     -71.669     192.094
  H       61.045     -65.173     197.806
  H       59.397     -71.731     193.410
  H       60.687     -63.489     197.407
  P       62.240     -61.884     193.195
  C       61.463     -59.485     193.807
  O       61.511     -60.848     194.176
  O       61.070     -62.235     192.150
  O       63.443     -61.392     192.460
  H       61.147     -61.646     191.378
  H       60.993     -58.921     194.616
  H       60.866     -59.357     192.900
  H       62.470     -59.093     193.644
  H       55.614     -65.830     195.851
  H       57.105     -66.543     195.283
  H       57.005     -64.818     195.542

 3  4  5  6  7  8  9  10  11  12  13  24  27  28  29  30  32 0
 6-311+G(2d,p)
 ****
 34  35 0
 6-311+G(2d,p)
 ****
 1  2  14  15  16  17  18  19  20  21  22  23  25  26 0
 3-21G
 ****
 31  33  36  37  38  39  40  41  42  43  44  45  46 0
 3-21G
 ****


