%nproc=1
%NoSave
%Mem=1900MB
#P OB98/GEN NMR

erre ene a

0 1
  C      -64.658    -167.118      36.336
  O      -65.180    -167.003      35.007
  P      -65.178    -168.326      34.100
  C      -67.329    -167.700      32.738
  O      -65.925    -167.917      32.739
  C      -67.674    -166.519      31.831
  O      -67.374    -165.266      32.491
  C      -66.894    -166.489      30.526
  O      -67.370    -167.466      29.612
  C      -67.112    -165.045      30.094
  O      -68.396    -164.898      29.471
  C      -67.092    -164.300      31.449
  N      -65.841    -163.596      31.695
  C      -65.695    -162.371      31.054
  O      -66.549    -161.902      30.296
  N      -64.522    -161.706      31.292
  C      -63.494    -162.151      32.066
  O      -62.471    -161.506      32.251
  C      -63.684    -163.477      32.680
  C      -64.828    -164.129      32.472
  O      -66.237    -169.236      34.877
  O      -63.821    -168.925      33.942
  H      -66.964    -168.724      35.270
  H      -68.576    -163.937      29.431
  H      -64.404    -160.810      30.842
  H      -62.875    -163.872      33.283
  H      -64.987    -165.108      32.913
  H      -67.906    -163.567      31.484
  H      -66.357    -164.704      29.378
  H      -65.827    -166.661      30.726
  H      -68.753    -166.553      31.626
  H      -67.675    -167.487      33.755
  H      -67.826    -168.614      32.404
  P      -66.266    -168.270      28.765
  C      -66.913    -170.799      28.872
  O      -66.998    -169.572      28.187
  O      -65.330    -168.835      29.936
  O      -65.551    -167.428      27.761
  H      -65.835    -169.199      30.684
  H      -67.730    -171.448      28.538
  H      -66.998    -170.662      29.955
  H      -65.962    -171.286      28.641
  H      -64.719    -166.169      36.826
  H      -63.636    -167.432      36.292
  H      -65.229    -167.839      36.882

 3  4  5  6  7  8  9  10  11  12  13  24  28  29  30  31  32 0
 6-311+G(2d,p)
 ****
 33  34 0
 6-311+G(2d,p)
 ****
 1  2  14  15  16  17  18  19  20  21  22  23  25  26  27 0
 3-21G
 ****
 35  36  37  38  39  40  41  42  43  44  45 0
 3-21G
 ****


