%nproc=1
%NoSave
%Mem=1900MB
#P OB98/GEN NMR

erre ene a

0 1
  C      -76.057     -79.622      -3.068
  O      -77.428     -79.919      -2.908
  P      -78.413     -80.199      -4.135
  C      -80.460     -79.536      -2.677
  O      -79.760     -79.351      -3.901
  C      -81.598     -78.523      -2.477
  O      -81.079     -77.185      -2.611
  C      -82.651     -78.691      -3.577
  O      -83.658     -79.676      -3.455
  C      -83.161     -77.282      -3.853
  O      -84.390     -77.002      -3.180
  C      -82.040     -76.387      -3.320
  N      -82.347     -72.627      -6.706
  C      -83.172     -72.901      -5.633
  N      -84.323     -72.194      -5.579
  N      -82.902     -73.798      -4.722
  C      -81.763     -74.489      -4.967
  C      -80.859     -74.299      -5.985
  C      -81.148     -73.277      -6.962
  O      -80.484     -73.061      -7.973
  N      -79.856     -75.235      -5.958
  C      -80.174     -76.018      -4.948
  N      -81.344     -75.629      -4.341
  O      -78.531     -81.617      -4.592
  O      -77.691     -79.370      -5.316
  H      -85.078     -77.575      -3.561
  H      -77.838     -79.859      -6.149
  H      -82.647     -71.976      -7.422
  H      -79.614     -76.893      -4.639
  H      -82.436     -75.661      -2.598
  H      -83.358     -77.145      -4.924
  H      -84.631     -71.603      -6.338
  H      -82.111     -78.978      -4.489
  H      -85.027     -72.485      -4.908
  H      -82.006     -78.585      -1.464
  H      -79.729     -79.460      -1.866
  H      -80.872     -80.548      -2.642
  P      -84.481     -80.346      -4.652
  C      -86.343     -80.723      -2.940
  O      -86.034     -80.334      -4.267
  O      -84.105     -81.901      -4.570
  O      -84.166     -79.808      -6.011
  H      -84.262     -82.324      -5.434
  H      -87.406     -80.970      -2.879
  H      -86.132     -79.893      -2.258
  H      -85.757     -81.596      -2.641
  H      -75.609     -79.475      -2.107
  H      -75.951     -78.731      -3.651
  H      -75.572     -80.435      -3.567

 3  4  5  6  7  8  9  10  11  12  23  26  30  31 0
 6-311+G(2d,p)
 ****
 33  35  36  37  38 0
 6-311+G(2d,p)
 ****
 1  2  13  14  15  16  17  18  19  20  21  22  24  25 0
 3-21G
 ****
 27  28  29  32  34  39  40  41  42  43  44  45  46  47  48  49 0
 3-21G
 ****


