%nproc=1
%NoSave
%Mem=1900MB
#P OB98/GEN NMR

erre ene a

0 1
  C     -904.957     516.811    -683.461
  O     -905.438     515.502    -683.832
  P     -905.227     515.058    -685.345
  C     -906.715     516.940    -686.345
  O     -906.509     515.540    -686.193
  C     -907.761     517.202    -687.434
  O     -907.284     516.795    -688.739
  C     -909.065     516.445    -687.215
  O     -909.839     517.059    -686.202
  C     -909.680     516.546    -688.612
  O     -910.291     517.834    -688.818
  C     -908.441     516.404    -689.512
  N     -909.137     513.322    -693.556
  C     -909.445     514.620    -693.340
  N     -909.222     515.371    -692.224
  C     -908.610     514.647    -691.287
  C     -908.237     513.320    -691.347
  C     -908.535     512.640    -692.551
  N     -908.242     511.294    -692.754
  N     -907.640     512.898    -690.170
  C     -907.677     513.979    -689.396
  N     -908.251     515.069    -690.030
  O     -905.379     513.465    -685.307
  O     -903.896     515.463    -685.911
  H     -911.024     517.923    -688.170
  H     -904.509     513.037    -685.420
  H     -909.918     515.142    -694.179
  H     -907.305     514.018    -688.377
  H     -908.475     517.076    -690.382
  H     -910.450     515.789    -688.799
  H     -908.864     515.400    -686.954
  H     -907.947     518.293    -687.471
  H     -905.774     517.447    -686.591
  H     -908.550     510.870    -693.616
  H     -907.867     510.775    -691.978
  H     -907.045     517.352    -685.370
  P     -909.708     516.468    -684.711
  C     -911.179     514.391    -685.094
  O     -911.092     515.674    -684.490
  O     -909.906     517.789    -683.825
  O     -908.459     515.670    -684.452
  H     -910.661     518.328    -684.125
  H     -912.147     513.957    -684.831
  H     -910.388     513.738    -684.708
  H     -911.097     514.486    -686.186
  H     -905.159     516.985    -682.425
  H     -905.453     517.554    -684.051
  H     -903.902     516.865    -683.632

 3  4  5  6  7  8  9  10  11  12  22  25  29  30  31  32 0
 6-311+G(2d,p)
 ****
 33  36  37 0
 6-311+G(2d,p)
 ****
 1  2  13  14  15  16  17  18  19  20  21  23  24  26 0
 3-21G
 ****
 27  28  34  35  38  39  40  41  42  43  44  45  46  47  48 0
 3-21G
 ****


