%nproc=1
%NoSave
%Mem=1900MB
#P OB98/GEN NMR

erre ene a

0 1
  C      -70.353     -21.910      21.551
  O      -69.710     -22.575      20.484
  H      -70.069     -22.398      22.486
  H      -71.438     -21.969      21.440
  H      -70.038     -20.864      21.593
  P      -70.007     -22.093      18.985
  C      -67.725     -22.261      17.790
  O      -68.983     -22.882      18.034
  C      -66.817     -22.406      19.017
  O      -66.754     -23.813      19.355
  C      -65.390     -21.906      18.754
  O      -64.944     -20.962      19.724
  C      -64.595     -23.196      18.592
  O      -63.223     -23.080      18.906
  C      -65.369     -24.194      19.458
  N      -65.187     -25.588      19.059
  C      -64.799     -26.490      20.045
  O      -64.611     -26.209      21.225
  N      -64.631     -27.786      19.628
  C      -64.793     -28.250      18.357
  O      -64.630     -29.424      18.045
  C      -65.175     -27.244      17.355
  C      -65.351     -25.980      17.745
  O      -70.040     -20.617      18.777
  O      -71.415     -22.768      18.632
  H      -63.164     -22.666      19.794
  H      -72.116     -22.089      18.654
  H      -64.365     -28.452      20.336
  H      -65.300     -27.576      16.333
  H      -65.635     -25.213      17.032
  H      -65.070     -24.109      20.504
  H      -64.658     -23.512      17.544
  H      -65.342     -21.342      17.815
  H      -67.280     -21.884      19.862
  H      -67.908     -21.203      17.577
  H      -67.249     -22.724      16.920
  P      -64.691     -19.413      19.447
  C      -64.910     -18.174      21.757
  O      -64.072     -18.754      20.765
  O      -65.807     -18.677      18.788
  O      -63.441     -19.408      18.428
  H      -63.561     -18.627      17.851
  H      -64.307     -17.791      22.553
  H      -65.576     -18.918      22.141
  H      -65.477     -17.377      21.323

 6  7  8  9  10  11  12  13  14  15  16  26  31  32  33  34  35 0
 6-311+G(2d,p)
 ****
 36  37 0
 6-311+G(2d,p)
 ****
 1  2  3  4  5  17  18  19  20  21  22  23  24  25 0
 3-21G
 ****
 27  28  29  30  38  39  40  41  42  43  44  45 0
 3-21G
 ****


