%nproc=1
%NoSave
%Mem=1900MB
#P OB98/GEN NMR

erre ene a

0 1
  C     -167.956      32.327    -442.668
  O     -167.818      31.264    -443.590
  H     -168.984      32.333    -442.299
  H     -167.759      33.279    -443.165
  H     -167.279      32.197    -441.821
  P     -166.366      30.936    -444.184
  C     -166.329      28.413    -443.639
  O     -166.382      29.401    -444.659
  C     -167.725      28.155    -443.062
  O     -168.583      27.665    -444.126
  C     -167.742      27.122    -441.932
  O     -168.703      27.514    -440.953
  C     -168.200      25.853    -442.624
  O     -168.838      24.948    -441.725
  C     -169.132      26.401    -443.703
  N     -172.110      22.997    -445.955
  C     -172.350      23.806    -444.863
  N     -173.555      23.679    -444.268
  N     -171.483      24.664    -444.392
  C     -170.328      24.700    -445.100
  C     -169.970      23.952    -446.198
  C     -170.931      22.993    -446.695
  O     -170.769      22.238    -447.649
  N     -168.702      24.266    -446.621
  C     -168.296      25.201    -445.781
  N     -169.240      25.490    -444.832
  O     -165.222      31.300    -443.290
  O     -166.312      31.742    -445.562
  H     -169.623      25.414    -441.360
  H     -165.750      32.535    -445.482
  H     -172.808      22.347    -446.270
  H     -167.331      25.692    -445.812
  H     -170.148      26.571    -443.332
  H     -167.338      25.341    -443.070
  H     -174.279      23.055    -444.591
  H     -166.765      27.007    -441.462
  H     -173.768      24.281    -443.483
  H     -168.145      29.111    -442.727
  H     -165.666      28.773    -442.848
  H     -165.917      27.489    -444.055
  P     -168.198      28.236    -439.611
  C     -170.276      29.613    -438.990
  O     -169.464      28.498    -438.658
  O     -167.309      29.418    -439.816
  O     -167.421      27.058    -438.847
  H     -166.662      27.443    -438.364
  H     -171.083      29.688    -438.291
  H     -170.670      29.486    -439.977
  H     -169.688      30.506    -438.953

 6  7  8  9  10  11  12  13  14  15  26  29  33  34 0
 6-311+G(2d,p)
 ****
 36  38  39  40  41 0
 6-311+G(2d,p)
 ****
 1  2  3  4  5  16  17  18  19  20  21  22  23  24  25 0
 3-21G
 ****
 27  28  30  31  32  35  37  42  43  44  45  46  47 0
 3-21G
 ****
 48  49 0
 3-21G
 ****


