%nproc=1
%NoSave
%Mem=1900MB
#P OB98/GEN NMR

erre ene a

0 1
  C      195.586     180.883     -24.110
  O      195.334     181.875     -23.134
  H      195.649     179.899     -23.639
  H      194.761     180.879     -24.826
  H      196.515     181.104     -24.644
  P      196.452     182.063     -21.999
  C      195.116     181.172     -19.961
  O      195.658     182.303     -20.625
  C      193.973     181.598     -19.046
  O      194.415     182.635     -18.147
  C      192.758     182.172     -19.768
  O      191.932     181.151     -20.304
  C      192.070     182.905     -18.627
  O      191.343     181.965     -17.814
  C      193.265     183.467     -17.843
  N      192.405     188.369     -16.659
  C      191.999     187.218     -16.083
  N      192.286     185.950     -16.443
  C      193.099     185.935     -17.511
  C      193.616     187.024     -18.193
  C      193.232     188.294     -17.731
  N      193.601     189.465     -18.372
  N      194.403     186.611     -19.250
  C      194.346     185.296     -19.216
  N      193.577     184.842     -18.180
  O      197.068     183.503     -22.342
  O      197.505     181.006     -21.962
  H      192.008     181.394     -17.385
  H      197.883     183.387     -22.864
  H      191.352     187.329     -15.218
  H      194.838     184.638     -19.918
  H      193.108     183.416     -16.759
  H      191.355     183.658     -18.969
  H      193.052     182.898     -20.535
  H      193.689     180.730     -18.436
  H      195.897     180.692     -19.363
  H      192.928     190.218     -18.260
  H      193.985     189.332     -19.300
  H      194.757     180.463     -20.713
  P      191.174     181.451     -21.685
  C      188.740     181.035     -20.915
  O      189.840     180.557     -21.678
  O      192.108     180.733     -22.768
  O      190.984     182.894     -22.006
  H      192.384     181.380     -23.447
  H      187.923     180.348     -20.998
  H      188.439     181.993     -21.284
  H      189.029     181.123     -19.889

 6  7  8  9  10  11  12  13  14  15  25  28  32  33  34  35 0
 6-311+G(2d,p)
 ****
 36  39  40 0
 6-311+G(2d,p)
 ****
 1  2  3  4  5  16  17  18  19  20  21  22  23  24 0
 3-21G
 ****
 26  27  29  30  31  37  38  41  42  43  44  45  46  47  48 0
 3-21G
 ****


