%nproc=1
%NoSave
%Mem=1900MB
#P OB98/GEN NMR

erre ene a

0 1
  C        7.184     115.228      -2.208
  O        8.504     115.680      -1.975
  H        7.082     114.874      -3.238
  H        6.973     114.397      -1.528
  H        6.468     116.033      -2.014
  P        9.001     116.925      -2.859
  C       10.414     115.545      -4.545
  O        9.262     116.347      -4.334
  C       11.209     116.068      -5.738
  O       10.420     115.965      -6.944
  C       11.620     117.532      -5.639
  O       12.765     117.707      -4.820
  C       11.926     117.839      -7.099
  O       13.229     117.332      -7.440
  C       10.840     117.036      -7.830
  N        7.989     118.790     -11.703
  C        9.049     117.950     -11.669
  N        9.742     117.516     -10.596
  C        9.228     118.022      -9.463
  C        8.137     118.867      -9.335
  C        7.507     119.265     -10.526
  N        6.462     120.179     -10.551
  N        7.919     119.186      -8.008
  C        8.870     118.556      -7.352
  N        9.681     117.832      -8.186
  O       10.475     117.199      -2.289
  O        8.143     118.144      -2.781
  H       13.255     116.404      -7.144
  H       10.436     117.919      -1.632
  H        9.387     117.583     -12.635
  H        9.013     118.596      -6.280
  H       11.217     116.566      -8.747
  H       11.928     118.912      -7.320
  H       10.786     118.163      -5.308
  H       12.089     115.424      -5.865
  H       10.107     114.511      -4.739
  H        6.420     120.717     -11.413
  H        6.331     120.689      -9.685
  H       11.031     115.571      -3.639
  P       12.874     119.060      -3.963
  C       14.319     120.391      -5.648
  O       13.048     120.256      -5.021
  O       14.318     118.936      -3.285
  O       11.809     119.254      -2.937
  H       14.234     119.012      -2.315
  H       14.297     121.220      -6.324
  H       14.547     119.496      -6.189
  H       15.068     120.558      -4.903

 6  7  8  9  10  11  12  13  14  15  25  28  32  33  34  35 0
 6-311+G(2d,p)
 ****
 36  39  40 0
 6-311+G(2d,p)
 ****
 1  2  3  4  5  16  17  18  19  20  21  22  23  24 0
 3-21G
 ****
 26  27  29  30  31  37  38  41  42  43  44  45  46  47  48 0
 3-21G
 ****


