%nproc=1
%NoSave
%Mem=1900MB
#P OB98/GEN NMR

erre ene a

0 1
  C      384.864     -95.202    -110.872
  O      385.987     -95.431    -111.716
  P      386.414     -96.856    -112.296
  C      388.221     -97.197    -110.423
  O      387.078     -97.696    -111.110
  C      388.659     -98.086    -109.247
  O      387.673     -97.997    -108.183
  C      388.707     -99.558    -109.665
  O      389.848    -100.067    -110.326
  C      388.314    -100.334    -108.418
  O      389.440    -100.756    -107.660
  C      387.484     -99.313    -107.627
  N      383.893    -102.754    -106.410
  C      385.264    -102.872    -106.354
  N      385.758    -104.074    -105.977
  N      386.088    -101.902    -106.657
  C      385.474    -100.787    -107.109
  C      384.123    -100.559    -107.235
  C      383.215    -101.617    -106.836
  O      381.988    -101.559    -106.860
  N      383.863     -99.315    -107.749
  C      385.054     -98.796    -107.964
  N      386.069     -99.652    -107.582
  O      387.139     -96.838    -113.598
  O      384.997     -97.596    -112.540
  H      389.901     -99.961    -107.334
  H      385.118     -98.184    -113.313
  H      383.301    -103.526    -106.144
  H      385.246     -97.815    -108.379
  H      387.818     -99.267    -106.586
  H      387.758    -101.240    -108.685
  H      385.180    -104.886    -105.840
  H      387.883     -99.710    -110.382
  H      386.752    -104.225    -106.135
  H      389.598     -97.727    -108.814
  H      387.962     -96.196    -110.074
  H      389.050     -97.079    -111.122
  P      390.167     -99.963    -111.895
  C      389.116    -102.272    -112.266
  O      389.139    -100.912    -112.674
  O      391.554    -100.741    -112.060
  O      390.268     -98.569    -112.427
  H      391.972    -100.514    -112.914
  H      388.636    -102.868    -113.042
  H      388.552    -102.368    -111.334
  H      390.132    -102.652    -112.108
  H      384.806     -94.161    -110.629
  H      384.971     -95.772    -109.973
  H      383.970     -95.500    -111.379

 3  4  5  6  7  8  9  10  11  12  23  26  30  31 0
 6-311+G(2d,p)
 ****
 33  35  36  37  38 0
 6-311+G(2d,p)
 ****
 1  2  13  14  15  16  17  18  19  20  21  22  24  25 0
 3-21G
 ****
 27  28  29  32  34  39  40  41  42  43  44  45  46  47  48  49 0
 3-21G
 ****


