%nproc=1
%NoSave
%Mem=1900MB
#P OB98/GEN NMR

erre ene a

0 1
  C     -237.574    -739.798    -907.615
  O     -236.213    -739.820    -908.056
  P     -235.241    -740.902    -907.390
  C     -234.671    -742.590    -909.260
  O     -235.469    -742.312    -908.135
  C     -234.900    -744.020    -909.796
  O     -234.842    -744.984    -908.701
  C     -236.256    -744.198    -910.474
  O     -236.102    -745.152    -911.531
  C     -237.113    -744.820    -909.386
  O     -238.266    -745.482    -909.924
  C     -236.071    -745.733    -908.711
  N     -238.325    -749.369    -905.908
  C     -238.074    -749.250    -907.239
  N     -237.502    -748.236    -907.914
  C     -237.118    -747.271    -907.069
  C     -237.293    -747.232    -905.689
  C     -237.952    -748.330    -905.106
  N     -238.225    -748.428    -903.770
  N     -236.818    -746.052    -905.165
  C     -236.336    -745.399    -906.207
  N     -236.457    -746.101    -907.371
  O     -235.906    -741.146    -905.936
  O     -233.825    -740.469    -907.267
  H     -237.950    -746.293    -910.383
  H     -235.344    -740.734    -905.258
  H     -238.406    -750.103    -907.848
  H     -235.902    -744.399    -906.192
  H     -235.913    -746.656    -909.276
  H     -237.457    -744.049    -908.687
  H     -236.702    -743.271    -910.874
  H     -234.101    -744.257    -910.502
  H     -233.604    -742.468    -909.016
  H     -238.721    -749.246    -903.439
  H     -237.977    -747.643    -903.158
  H     -234.874    -741.849    -910.040
  P     -235.731    -744.581    -912.986
  C     -233.421    -745.595    -913.554
  O     -234.123    -744.496    -913.034
  O     -236.178    -743.035    -912.889
  O     -236.384    -745.289    -914.108
  H     -236.401    -742.708    -913.796
  H     -232.596    -745.242    -914.173
  H     -234.043    -746.257    -914.152
  H     -232.991    -746.170    -912.716
  H     -238.106    -739.032    -908.139
  H     -237.605    -739.599    -906.564
  H     -238.028    -740.747    -907.812

 3  4  5  6  7  8  9  10  11  12  22  25  29  30  31  32 0
 6-311+G(2d,p)
 ****
 33  36  37 0
 6-311+G(2d,p)
 ****
 1  2  13  14  15  16  17  18  19  20  21  23  24  26 0
 3-21G
 ****
 27  28  34  35  38  39  40  41  42  43  44  45  46  47  48 0
 3-21G
 ****


