%nproc=1
%NoSave
%Mem=1900MB
#P OB98/GEN NMR

erre ene a

0 1
  C      -70.602     582.101     -47.999
  O      -71.889     582.572     -48.380
  P      -72.657     583.561     -47.375
  C      -74.150     581.612     -46.524
  O      -73.241     582.660     -46.180
  C      -75.225     582.115     -47.480
  O      -76.026     580.982     -47.928
  C      -76.191     583.137     -46.880
  O      -76.576     584.038     -47.933
  C      -77.394     582.297     -46.490
  O      -78.578     583.075     -46.351
  C      -77.411     581.294     -47.643
  N      -80.887     577.904     -49.245
  C      -80.365     578.998     -49.833
  N      -79.435     579.848     -49.345
  C      -79.062     579.481     -48.104
  C      -79.534     578.415     -47.362
  C      -80.495     577.588     -47.981
  N      -81.028     576.473     -47.388
  N      -78.932     578.375     -46.124
  C      -78.102     579.404     -46.117
  N      -78.132     580.086     -47.299
  O      -73.964     583.963     -48.212
  O      -71.892     584.767     -46.950
  H      -79.335     582.470     -46.273
  H      -73.920     584.910     -48.464
  H      -80.721     579.215     -50.839
  H      -77.469     579.686     -45.285
  H      -77.850     581.711     -48.550
  H      -77.193     581.797     -45.531
  H      -75.781     583.701     -46.041
  H      -74.734     582.528     -48.369
  H      -74.633     581.259     -45.603
  H      -81.606     575.862     -47.950
  H      -80.603     576.123     -46.535
  H      -73.593     580.776     -46.971
  P      -76.206     585.584     -47.746
  C      -78.443     586.351     -46.689
  O      -77.059     586.117     -46.503
  O      -76.891     586.285     -49.013
  O      -74.734     585.857     -47.701
  H      -76.403     587.092     -49.249
  H      -78.967     586.133     -45.754
  H      -78.862     585.731     -47.488
  H      -78.599     587.405     -46.941
  H      -70.218     581.457     -48.762
  H      -70.678     581.559     -47.080
  H      -69.942     582.933     -47.869

 3  4  5  6  7  8  9  10  11  12  22  25  29  30  31  32 0
 6-311+G(2d,p)
 ****
 33  36  37 0
 6-311+G(2d,p)
 ****
 1  2  13  14  15  16  17  18  19  20  21  23  24  26 0
 3-21G
 ****
 27  28  34  35  38  39  40  41  42  43  44  45  46  47  48 0
 3-21G
 ****


