%nproc=1
%NoSave
%Mem=1900MB
#P OB98/GEN NMR

erre ene a

0 1
  C     -376.963      38.701     424.545
  O     -377.455      39.540     425.574
  H     -376.020      38.256     424.874
  H     -376.772      39.273     423.633
  H     -377.677      37.901     424.335
  P     -378.752      40.433     425.271
  C     -377.322      42.446     424.495
  O     -378.301      41.474     424.140
  C     -376.273      42.560     423.395
  O     -375.633      41.285     423.178
  C     -376.856      42.963     422.045
  O     -377.164      44.342     422.022
  C     -375.751      42.519     421.109
  O     -374.681      43.472     421.077
  C     -375.295      41.199     421.776
  N     -375.896      40.018     421.164
  C     -375.104      39.341     420.229
  O     -373.969      39.740     419.967
  N     -375.637      38.243     419.599
  C     -376.837      37.846     419.884
  N     -377.301      36.750     419.227
  C     -377.697      38.522     420.874
  C     -377.171      39.594     421.466
  O     -379.435      41.054     426.448
  O     -379.718      39.433     424.476
  H     -374.026      43.117     420.443
  H     -380.294      38.945     425.098
  H     -378.689      38.154     421.087
  H     -377.737      40.151     422.206
  H     -374.204      41.098     421.719
  H     -376.115      42.396     420.092
  H     -377.748      42.362     421.829
  H     -375.505      43.274     423.720
  H     -376.678      36.324     418.547
  H     -376.854      42.110     425.429
  H     -378.181      36.301     419.432
  H     -377.790      43.421     424.674
  P     -378.677      44.838     421.815
  C     -377.926      46.118     419.705
  O     -378.815      45.142     420.245
  O     -379.113      45.940     422.727
  O     -379.528      43.493     421.997
  H     -379.575      43.221     422.943
  H     -378.114      46.231     418.658
  H     -376.915      45.800     419.853
  H     -378.082      47.054     420.199

 6  7  8  9  10  11  12  13  14  15  16  26  30  31  32  33  35 0
 6-311+G(2d,p)
 ****
 37  38 0
 6-311+G(2d,p)
 ****
 1  2  3  4  5  17  18  19  20  21  22  23  24  25 0
 3-21G
 ****
 27  28  29  34  36  39  40  41  42  43  44  45  46 0
 3-21G
 ****


