%nproc=1
%NoSave
%Mem=1900MB
#P OB98/GEN NMR

erre ene a

0 1
  C     1648.692      37.068     742.098
  O     1647.771      36.334     742.884
  H     1648.819      38.057     742.548
  H     1648.302      37.188     741.088
  H     1649.657      36.568     742.066
  P     1647.656      34.759     742.603
  C     1645.237      34.812     741.651
  O     1646.617      34.576     741.383
  C     1644.367      33.762     740.957
  O     1643.022      33.871     741.468
  C     1644.318      33.909     739.424
  O     1644.310      32.603     738.831
  C     1642.969      34.572     739.179
  O     1642.456      34.291     737.872
  C     1642.132      33.976     740.328
  N     1637.583      35.431     738.725
  C     1638.432      34.472     738.203
  N     1638.052      33.800     737.118
  N     1639.599      34.200     738.752
  C     1639.869      34.915     739.864
  C     1639.100      35.886     740.460
  C     1637.827      36.201     739.855
  O     1637.037      37.045     740.244
  N     1639.716      36.397     741.566
  C     1640.862      35.769     741.649
  N     1640.994      34.830     740.640
  O     1646.845      34.220     743.862
  O     1648.954      34.048     742.442
  H     1642.288      33.317     737.845
  H     1647.418      33.622     744.398
  H     1636.701      35.615     738.273
  H     1641.623      35.908     742.394
  H     1641.738      32.996     740.079
  H     1643.075      35.671     739.292
  H     1637.141      33.938     736.687
  H     1645.146      34.495     739.025
  H     1638.644      33.072     736.750
  H     1644.743      32.762     741.234
  H     1644.974      35.815     741.267
  H     1645.065      34.785     742.726
  P     1645.716      32.073     738.267
  C     1645.638      33.264     735.974
  O     1646.289      33.147     737.223
  O     1645.314      30.842     737.325
  O     1646.712      31.651     739.311
  H     1645.543      29.994     737.779
  H     1646.126      34.013     735.386
  H     1644.616      33.542     736.129
  H     1645.679      32.326     735.461

 6  7  8  9  10  11  12  13  14  15  26  29  33  34 0
 6-311+G(2d,p)
 ****
 36  38  39  40  41 0
 6-311+G(2d,p)
 ****
 1  2  3  4  5  16  17  18  19  20  21  22  23  24  25 0
 3-21G
 ****
 27  28  30  31  32  35  37  42  43  44  45  46  47 0
 3-21G
 ****
 48  49 0
 3-21G
 ****


