%nproc=1
%NoSave
%Mem=1900MB
#P OB98/GEN NMR

erre ene a

0 1
  C       -0.008     -31.122      40.675
  O       -0.574     -31.579      41.891
  P       -0.251     -30.771      43.235
  C       -2.330     -29.264      42.825
  O       -0.942     -29.329      43.114
  C       -3.144     -29.231      44.121
  O       -2.701     -28.106      44.939
  C       -4.656     -29.072      43.905
  O       -5.320     -29.801      44.947
  C       -4.862     -27.584      44.115
  O       -6.208     -27.241      44.408
  C       -3.876     -27.334      45.261
  N       -3.559     -25.919      45.440
  C       -4.446     -25.155      46.193
  O       -5.470     -25.600      46.708
  N       -4.152     -23.822      46.290
  C       -3.136     -23.174      45.650
  O       -2.995     -21.958      45.684
  C       -2.231     -24.031      44.868
  C       -2.478     -25.341      44.801
  O        1.313     -30.456      43.107
  O       -0.571     -31.505      44.495
  H       -6.382     -27.502      45.330
  H        1.832     -31.084      43.643
  H       -4.778     -23.255      46.841
  H       -1.401     -23.553      44.365
  H       -1.839     -25.993      44.216
  H       -4.277     -27.738      46.199
  H       -4.566     -27.044      43.209
  H       -4.997     -29.413      42.923
  H       -2.934     -30.146      44.688
  H       -2.616     -30.143      42.245
  H       -2.537     -28.377      42.216
  P       -6.873     -30.157      44.742
  C       -6.153     -32.522      43.891
  O       -6.935     -31.363      43.691
  O       -7.362     -28.885      43.899
  O       -7.619     -30.349      46.021
  H       -6.733     -28.635      43.202
  H       -6.048     -32.758      44.954
  H       -5.163     -32.370      43.455
  H       -6.635     -33.364      43.389
  H       -0.316     -31.763      39.875
  H        1.059     -31.134      40.751
  H       -0.340     -30.124      40.480

 3  4  5  6  7  8  9  10  11  12  13  23  28  29  30  31  32 0
 6-311+G(2d,p)
 ****
 33  34 0
 6-311+G(2d,p)
 ****
 1  2  14  15  16  17  18  19  20  21  22  24  25  26 0
 3-21G
 ****
 27  35  36  37  38  39  40  41  42  43  44  45 0
 3-21G
 ****


