%nproc=1
%NoSave
%Mem=1900MB
#P OB98/GEN NMR

erre ene a

0 1
  C       84.705      64.323     -11.090
  O       85.509      63.575     -10.204
  P       84.971      62.199      -9.581
  C       82.918      61.500      -8.193
  O       83.720      62.584      -8.651
  C       82.060      61.943      -7.013
  O       82.871      62.144      -5.824
  C       81.361      63.280      -7.217
  O       80.365      63.345      -8.215
  C       80.943      63.619      -5.795
  O       79.746      62.934      -5.428
  C       82.147      63.078      -4.983
  N       83.011      64.157      -4.504
  C       82.559      64.845      -3.384
  O       81.503      64.591      -2.807
  N       83.353      65.876      -2.956
  C       84.503      66.304      -3.552
  O       85.144      67.264      -3.142
  C       84.922      65.547      -4.742
  C       84.170      64.523      -5.159
  O       86.007      61.358      -8.911
  O       84.259      61.484     -10.826
  H       79.694      62.934      -4.452
  H       83.525      61.988     -11.220
  H       83.039      66.397      -2.152
  H       85.838      65.853      -5.233
  H       84.458      63.953      -6.036
  H       81.796      62.510      -4.112
  H       80.754      64.689      -5.672
  H       82.119      64.018      -7.512
  H       81.349      61.146      -6.785
  H       83.574      60.684      -7.870
  H       82.301      61.128      -9.018
  P       80.280      64.520      -9.300
  C       80.161      67.106      -9.180
  O       79.890      65.878      -8.542
  O       79.558      64.208     -10.569
  O       81.833      64.764      -9.631
  H       81.921      65.055     -10.558
  H       79.875      67.920      -8.509
  H       79.577      67.196     -10.104
  H       81.229      67.198      -9.404
  H       85.233      65.202     -11.396
  H       83.798      64.605     -10.597
  H       84.474      63.729     -11.949

 3  4  5  6  7  8  9  10  11  12  13  23  28  29  30  31  32 0
 6-311+G(2d,p)
 ****
 33  34 0
 6-311+G(2d,p)
 ****
 1  2  14  15  16  17  18  19  20  21  22  24  25  26  27 0
 3-21G
 ****
 35  36  37  38  39  40  41  42  43  44  45 0
 3-21G
 ****


