%nproc=1
%NoSave
%Mem=1900MB
#P OB98/GEN NMR

erre ene a

0 1
  C      105.582     202.582     107.412
  O      104.881     203.109     108.520
  H      104.943     202.650     106.530
  H      105.833     201.535     107.589
  H      106.493     203.158     107.236
  P      105.612     203.000     109.947
  C      106.354     205.502     109.874
  O      105.569     204.501     110.513
  C      105.561     206.796     109.765
  O      104.570     206.700     108.710
  C      104.772     207.174     111.021
  O      105.580     207.728     112.040
  C      103.813     208.190     110.432
  O      104.516     209.426     110.190
  C      103.424     207.501     109.115
  N      102.229     206.651     109.244
  C      100.998     207.257     108.961
  O      100.940     208.443     108.629
  N       99.851     206.512     109.101
  C       99.921     205.267     109.466
  N       98.755     204.585     109.587
  C      101.201     204.590     109.754
  C      102.299     205.332     109.624
  O      107.155     202.817     109.562
  O      105.078     201.960     110.878
  H      103.865     210.053     109.820
  H      107.715     202.887     110.372
  H      101.214     203.558     110.067
  H      103.277     204.899     109.819
  H      103.242     208.237     108.320
  H      102.981     208.427     111.089
  H      104.197     206.324     111.401
  H      106.260     207.594     109.480
  H       97.896     205.096     109.438
  H      106.625     205.136     108.878
  H       98.698     203.664     110.010
  H      107.267     205.683     110.449
  P      105.015     207.677     113.542
  C      106.602     205.706     114.168
  O      106.160     207.035     114.455
  O      103.901     206.524     113.472
  O      104.447     208.969     114.044
  H      103.158     206.724     114.070
  H      107.365     205.426     114.864
  H      106.995     205.668     113.173
  H      105.777     205.030     114.252

 6  7  8  9  10  11  12  13  14  15  16  26  30  31  32  33  35 0
 6-311+G(2d,p)
 ****
 37  38 0
 6-311+G(2d,p)
 ****
 1  2  3  4  5  17  18  19  20  21  22  23  24  25 0
 3-21G
 ****
 27  28  29  34  36  39  40  41  42  43  44  45  46 0
 3-21G
 ****


