%nproc=1
%NoSave
%Mem=1900MB
#P OB98/GEN NMR

erre ene a

0 1
  C      -70.953     -62.579      92.962
  O      -71.952     -63.277      92.223
  P      -73.476     -63.426      92.672
  C      -74.641     -61.678      91.104
  O      -74.403     -63.040      91.427
  C      -75.909     -61.470      90.259
  O      -75.728     -62.083      88.956
  C      -77.106     -62.172      90.904
  O      -77.831     -61.533      91.937
  C      -77.964     -62.625      89.733
  O      -78.991     -61.686      89.409
  C      -76.959     -62.735      88.582
  N      -77.893     -66.518      85.268
  C      -78.449     -65.257      85.330
  N      -79.413     -64.977      84.428
  N      -78.103     -64.356      86.210
  C      -77.193     -64.794      87.108
  C      -76.585     -66.028      87.162
  C      -76.932     -67.000      86.146
  O      -76.462     -68.127      86.039
  N      -75.728     -66.119      88.229
  C      -75.836     -64.955      88.834
  N      -76.709     -64.111      88.187
  O      -73.823     -62.817      93.988
  O      -73.668     -65.023      92.808
  H      -79.331     -61.314      90.241
  H      -74.317     -65.164      93.528
  H      -78.180     -67.165      84.554
  H      -75.303     -64.669      89.733
  H      -77.325     -62.217      87.687
  H      -78.471     -63.569      89.969
  H      -79.807     -65.663      83.804
  H      -76.725     -63.094      91.361
  H      -79.972     -64.140      84.606
  H      -76.081     -60.408      90.069
  H      -73.760     -61.321      90.564
  H      -74.707     -61.083      92.017
  P      -78.384     -62.223      93.273
  C      -76.968     -60.545      94.593
  O      -78.232     -61.172      94.470
  O      -77.276     -63.320      93.629
  O      -79.733     -62.850      93.148
  H      -77.629     -63.967      94.266
  H      -76.884     -60.107      95.591
  H      -76.879     -59.750      93.847
  H      -76.158     -61.268      94.454
  H      -70.021     -62.632      92.440
  H      -70.846     -63.026      93.928
  H      -71.242     -61.555      93.073

 3  4  5  6  7  8  9  10  11  12  23  26  30  31 0
 6-311+G(2d,p)
 ****
 33  35  36  37  38 0
 6-311+G(2d,p)
 ****
 1  2  13  14  15  16  17  18  19  20  21  22  24  25 0
 3-21G
 ****
 27  28  29  32  34  39  40  41  42  43  44  45  46  47  48  49 0
 3-21G
 ****


