%nproc=1
%NoSave
%Mem=1900MB
#P OB98/GEN NMR

erre ene a

0 1
  C     -321.498     105.607     -38.235
  O     -322.257     106.799     -38.122
  P     -323.700     106.722     -37.434
  C     -326.110     106.140     -38.221
  O     -324.720     106.087     -38.498
  C     -326.809     104.888     -38.761
  O     -326.419     103.733     -37.958
  C     -328.341     104.966     -38.734
  O     -328.834     104.239     -39.872
  C     -328.688     104.216     -37.464
  O     -330.034     103.762     -37.430
  C     -327.639     103.101     -37.518
  N     -327.460     102.425     -36.228
  C     -327.884     101.103     -36.136
  O     -328.398     100.481     -37.066
  N     -327.761     100.521     -34.902
  C     -327.350     101.144     -33.761
  O     -327.373     100.600     -32.662
  C     -326.914     102.540     -33.915
  C     -326.988     103.107     -35.123
  O     -324.147     108.258     -37.346
  O     -323.717     106.059     -36.096
  H     -330.197     103.272     -38.257
  H     -323.997     108.603     -36.446
  H     -328.050      99.562     -34.821
  H     -326.561     103.059     -33.034
  H     -326.690     104.143     -35.267
  H     -327.912     102.360     -38.282
  H     -328.534     104.870     -36.599
  H     -328.730     105.990     -38.743
  H     -326.452     104.705     -39.787
  H     -326.538     107.021     -38.697
  H     -326.266     106.226     -37.137
  P     -330.337     104.533     -40.360
  C     -332.700     103.880     -39.459
  O     -331.305     103.694     -39.402
  O     -330.364     103.719     -41.743
  O     -330.645     105.987     -40.514
  H     -329.943     102.845     -41.675
  H     -333.037     104.102     -40.478
  H     -332.984     104.703     -38.803
  H     -333.198     102.969     -39.113
  H     -320.565     105.822     -38.713
  H     -322.041     104.892     -38.818
  H     -321.315     105.207     -37.260

 3  4  5  6  7  8  9  10  11  12  13  23  28  29  30  31  32 0
 6-311+G(2d,p)
 ****
 33  34 0
 6-311+G(2d,p)
 ****
 1  2  14  15  16  17  18  19  20  21  22  24  25  26 0
 3-21G
 ****
 27  35  36  37  38  39  40  41  42  43  44  45 0
 3-21G
 ****


