%nproc=1
%NoSave
%Mem=1900MB
#P OB98/GEN NMR

erre ene a

0 1
  C      -99.775    -273.842     180.777
  O      -99.350    -274.380     182.036
  P      -98.042    -273.846     182.792
  C      -98.534    -271.365     183.285
  O      -98.470    -272.687     183.816
  C      -97.804    -270.358     184.178
  O      -97.632    -269.100     183.497
  C      -98.521    -270.035     185.485
  O      -98.326    -271.068     186.432
  C      -97.890    -268.697     185.852
  O      -96.612    -268.897     186.477
  C      -97.713    -268.043     184.472
  N      -99.386    -264.685     180.994
  C      -98.293    -265.475     181.035
  N      -97.912    -266.342     181.998
  C      -98.813    -266.366     182.995
  C      -99.976    -265.612     183.094
  C     -100.254    -264.736     182.035
  N     -101.362    -263.921     182.004
  N     -100.635    -265.888     184.274
  C      -99.894    -266.805     184.866
  N      -98.785    -267.127     184.132
  O      -96.913    -273.471     181.881
  O      -97.607    -275.049     183.758
  H      -95.989    -269.187     185.782
  H      -96.646    -275.021     183.910
  H      -97.629    -265.404     180.174
  H     -100.119    -267.267     185.819
  H      -96.772    -267.482     184.409
  H      -98.503    -268.113     186.543
  H      -99.593    -269.890     185.298
  H      -96.802    -270.758     184.383
  H      -99.589    -271.080     183.195
  H     -101.475    -263.293     181.224
  H     -101.992    -263.916     182.797
  H      -98.086    -271.370     182.285
  P      -99.542    -272.019     186.848
  C     -100.314    -272.643     184.482
  O      -99.717    -273.104     185.679
  O     -100.794    -271.324     187.260
  O      -98.944    -272.898     188.051
  H      -99.669    -273.145     188.657
  H     -101.396    -272.599     184.602
  H     -100.069    -273.344     183.680
  H      -99.931    -271.653     184.212
  H     -100.665    -274.342     180.458
  H      -99.004    -273.986     180.049
  H      -99.973    -272.796     180.885

 3  4  5  6  7  8  9  10  11  12  22  25  29  30  31  32 0
 6-311+G(2d,p)
 ****
 33  36  37 0
 6-311+G(2d,p)
 ****
 1  2  13  14  15  16  17  18  19  20  21  23  24  26 0
 3-21G
 ****
 27  28  34  35  38  39  40  41  42  43  44  45  46  47  48 0
 3-21G
 ****


