%nproc=1
%NoSave
%Mem=1900MB
#P OB98/GEN NMR

erre ene a

0 1
  C       18.254     228.648     -69.792
  O       17.653     229.903     -70.034
  H       18.703     228.289     -70.723
  H       17.506     227.923     -69.459
  H       19.039     228.748     -69.038
  P       16.886     230.580     -68.799
  C       14.758     229.150     -69.070
  O       15.896     229.433     -68.264
  C       13.615     228.612     -68.209
  O       13.988     227.298     -67.715
  C       13.301     229.489     -66.991
  O       11.893     229.466     -66.750
  C       14.014     228.774     -65.856
  O       13.458     229.088     -64.583
  C       13.859     227.316     -66.283
  N       14.545     223.393     -63.110
  C       13.436     223.915     -63.677
  N       13.347     224.952     -64.535
  C       14.572     225.424     -64.839
  C       15.790     224.996     -64.342
  C       15.748     223.931     -63.424
  N       16.867     223.415     -62.812
  N       16.815     225.762     -64.858
  C       16.228     226.630     -65.662
  N       14.869     226.474     -65.664
  O       16.239     231.894     -69.083
  O       18.023     230.605     -67.674
  H       12.512     228.829     -64.585
  H       18.490     229.749     -67.618
  H       12.497     223.444     -63.399
  H       16.735     227.392     -66.244
  H       12.880     226.899     -66.014
  H       15.071     229.064     -65.840
  H       13.640     230.519     -67.104
  H       12.731     228.476     -68.840
  H       15.015     228.412     -69.838
  H       16.747     222.649     -62.169
  H       17.775     223.795     -63.037
  H       14.458     230.079     -69.567
  P       10.966     230.575     -67.442
  C       11.114     232.357     -65.587
  O       11.429     232.027     -66.930
  O        9.497     230.326     -67.376
  O       11.480     230.568     -68.961
  H       10.709     230.629     -69.559
  H       11.472     233.341     -65.368
  H       11.579     231.654     -64.928
  H       10.053     232.325     -65.451

 6  7  8  9  10  11  12  13  14  15  25  28  32  33  34  35 0
 6-311+G(2d,p)
 ****
 36  39  40 0
 6-311+G(2d,p)
 ****
 1  2  3  4  5  16  17  18  19  20  21  22  23  24 0
 3-21G
 ****
 26  27  29  30  31  37  38  41  42  43  44  45  46  47 0
 3-21G
 ****
 48 0
 3-21G
 ****


