%nproc=1
%NoSave
%Mem=1900MB
#P OB98/GEN NMR

erre ene a

0 1
  C      114.885    -194.138    -130.631
  O      114.927    -193.053    -129.726
  H      115.123    -195.070    -130.112
  H      113.877    -194.212    -131.045
  H      115.592    -193.976    -131.450
  P      116.341    -192.755    -129.026
  C      117.142    -190.928    -130.687
  O      117.318    -192.248    -130.196
  C      118.244    -190.588    -131.684
  O      118.056    -189.254    -132.200
  C      119.656    -190.610    -131.108
  O      120.166    -191.933    -131.015
  C      120.402    -189.798    -132.155
  O      120.684    -190.623    -133.302
  C      119.368    -188.723    -132.521
  N      121.749    -184.194    -132.559
  C      121.705    -185.199    -133.462
  N      121.032    -186.364    -133.391
  C      120.333    -186.435    -132.245
  C      120.260    -185.487    -131.241
  C      121.015    -184.319    -131.425
  N      121.105    -183.326    -130.461
  N      119.447    -185.924    -130.212
  C      119.057    -187.127    -130.582
  N      119.559    -187.477    -131.807
  O      116.884    -194.225    -128.685
  O      116.280    -191.892    -127.813
  H      119.837    -191.028    -133.568
  H      116.678    -194.434    -127.755
  H      122.295    -185.047    -134.360
  H      118.416    -187.775    -129.999
  H      119.369    -188.495    -133.593
  H      121.358    -189.407    -131.793
  H      119.705    -190.088    -130.147
  H      118.159    -191.282    -132.531
  H      117.179    -190.221    -129.852
  H      121.983    -182.815    -130.483
  H      120.758    -183.596    -129.549
  H      116.161    -190.862    -131.167
  P      121.487    -192.163    -130.132
  C      120.055    -193.551    -128.484
  O      120.985    -192.488    -128.639
  O      122.097    -190.687    -130.016
  O      122.478    -193.114    -130.705
  H      123.017    -190.684    -130.344
  H      119.807    -193.659    -127.449
  H      120.489    -194.460    -128.844
  H      119.169    -193.334    -129.043

 6  7  8  9  10  11  12  13  14  15  25  28  32  33  34  35 0
 6-311+G(2d,p)
 ****
 36  39  40 0
 6-311+G(2d,p)
 ****
 1  2  3  4  5  16  17  18  19  20  21  22  23  24 0
 3-21G
 ****
 26  27  29  30  31  37  38  41  42  43  44  45  46  47  48 0
 3-21G
 ****


