%nproc=1
%NoSave
%Mem=1900MB
#P OB98/GEN NMR

erre ene a

0 1
  C       14.134     310.525    -142.699
  O       15.244     309.842    -143.240
  H       13.785     311.259    -143.431
  H       14.434     311.054    -141.788
  H       13.316     309.838    -142.473
  P       15.753     308.504    -142.522
  C       16.439     306.231    -143.532
  O       16.538     307.645    -143.625
  C       16.628     305.581    -144.909
  O       15.515     305.958    -145.764
  C       17.904     306.078    -145.597
  O       18.442     305.114    -146.499
  C       17.413     307.281    -146.393
  O       18.261     307.607    -147.491
  C       16.017     306.817    -146.800
  N       13.909     309.997    -150.186
  C       14.977     309.138    -150.343
  N       15.559     309.121    -151.568
  N       15.446     308.382    -149.388
  C       14.817     308.553    -148.200
  C       13.764     309.393    -147.914
  C       13.227     310.201    -148.991
  O       12.300     310.994    -148.896
  N       13.396     309.300    -146.592
  C       14.224     308.416    -146.081
  N       15.091     307.914    -147.023
  O       14.408     307.655    -142.315
  O       16.481     308.702    -141.229
  H       18.160     306.904    -148.159
  H       14.526     307.005    -141.599
  H       13.567     310.539    -150.962
  H       14.234     308.092    -145.052
  H       16.062     306.230    -147.730
  H       17.395     308.148    -145.724
  H       15.354     309.826    -152.260
  H       18.679     306.373    -144.887
  H       16.511     308.744    -151.613
  H       16.602     304.488    -144.818
  H       15.449     306.003    -143.132
  H       17.172     305.845    -142.823
  P       19.841     304.420    -146.135
  C       20.625     301.992    -146.835
  O       20.172     303.278    -147.201
  O       19.532     303.620    -144.791
  O       20.980     305.384    -145.969
  H       20.050     303.985    -144.049
  H       20.778     301.404    -147.716
  H       19.893     301.520    -146.214
  H       21.547     302.078    -146.298

 6  7  8  9  10  11  12  13  14  15  26  29  33  34 0
 6-311+G(2d,p)
 ****
 36  38  39  40  41 0
 6-311+G(2d,p)
 ****
 1  2  3  4  5  16  17  18  19  20  21  22  23  24  25 0
 3-21G
 ****
 27  28  30  31  32  35  37  42  43  44  45  46  47 0
 3-21G
 ****
 48  49 0
 3-21G
 ****


