%nproc=1
%NoSave
%Mem=1900MB
#P OB98/GEN NMR

erre ene a

0 1
  C      -66.169      49.880     -40.656
  O      -65.598      51.142     -40.362
  P      -64.742      51.343     -39.024
  C      -67.009      51.665     -37.786
  O      -65.730      51.068     -37.791
  C      -67.832      51.201     -36.577
  O      -67.979      49.762     -36.666
  C      -67.188      51.472     -35.221
  O      -68.200      51.387     -34.213
  C      -66.240      50.301     -35.087
  O      -65.853      50.071     -33.736
  C      -67.031      49.149     -35.757
  N      -66.139      48.232     -36.490
  C      -65.096      47.656     -35.767
  O      -64.949      47.822     -34.557
  N      -64.180      46.951     -36.500
  C      -64.189      46.818     -37.857
  O      -63.219      46.459     -38.515
  C      -65.429      47.239     -38.528
  C      -66.325      47.941     -37.829
  O      -64.511      52.926     -38.985
  O      -63.455      50.592     -38.982
  H      -65.371      49.211     -33.720
  H      -63.639      53.148     -39.360
  H      -63.349      46.657     -35.999
  H      -65.542      47.016     -39.580
  H      -67.227      48.310     -38.311
  H      -67.586      48.560     -35.015
  H      -65.328      50.512     -35.660
  H      -66.668      52.430     -35.155
  H      -68.834      51.646     -36.627
  H      -67.525      51.422     -38.720
  H      -66.920      52.758     -37.757
  P      -68.254      52.547     -33.105
  C      -67.254      50.840     -31.465
  O      -67.173      52.153     -31.987
  O      -69.609      52.899     -32.593
  O      -67.555      53.786     -33.847
  H      -67.794      54.616     -33.395
  H      -66.255      50.520     -31.156
  H      -67.638      50.136     -32.209
  H      -67.912      50.841     -30.592
  H      -66.701      49.936     -41.583
  H      -66.845      49.603     -39.874
  H      -65.393      49.147     -40.734

 3  4  5  6  7  8  9  10  11  12  13  23  28  29  30  31  32 0
 6-311+G(2d,p)
 ****
 33  34 0
 6-311+G(2d,p)
 ****
 1  2  14  15  16  17  18  19  20  21  22  24  25  26  27 0
 3-21G
 ****
 35  36  37  38  39  40  41  42  43  44  45 0
 3-21G
 ****


