%nproc=1
%NoSave
%Mem=1900MB
#P OB98/GEN NMR

erre ene a

0 1
  C       23.145     -11.353       3.164
  O       22.748     -10.047       3.526
  H       24.031     -11.283       2.527
  H       22.350     -11.848       2.602
  H       23.396     -11.941       4.050
  P       21.546      -9.865       4.570
  C       19.984     -11.649       3.563
  O       20.197     -10.263       3.800
  C       19.339     -11.848       2.194
  O       19.127     -13.254       1.939
  C       17.971     -11.190       2.055
  O       18.098      -9.792       1.892
  C       17.425     -11.937       0.848
  O       17.968     -11.412      -0.373
  C       17.952     -13.369       1.105
  N       16.951     -14.240       1.722
  C       16.225     -15.049       0.854
  O       16.389     -15.050      -0.363
  N       15.261     -15.831       1.435
  C       14.905     -15.811       2.753
  O       13.898     -16.360       3.188
  C       15.756     -14.995       3.631
  C       16.715     -14.246       3.083
  O       21.502      -8.557       5.286
  O       21.747     -11.085       5.590
  H       22.174     -10.756       6.404
  H       17.454     -10.608      -0.581
  H       14.696     -16.387       0.809
  H       15.547     -15.002       4.693
  H       17.335     -13.613       3.708
  H       18.275     -13.833       0.165
  H       16.339     -11.866       0.772
  H       17.350     -11.426       2.927
  H       20.032     -11.467       1.432
  H       19.316     -12.036       4.340
  H       20.941     -12.175       3.622
  P       17.452      -8.774       2.943
  C       15.003      -9.322       2.431
  O       16.017      -8.328       2.388
  O       18.336      -7.643       3.353
  O       17.081      -9.692       4.203
  H       17.476      -9.305       5.008
  H       14.092      -8.920       2.039
  H       14.850      -9.631       3.444
  H       15.303     -10.164       1.843

 6  7  8  9  10  11  12  13  14  15  16  27  31  32  33  34  35 0
 6-311+G(2d,p)
 ****
 36  37 0
 6-311+G(2d,p)
 ****
 1  2  3  4  5  17  18  19  20  21  22  23  24  25 0
 3-21G
 ****
 26  28  29  30  38  39  40  41  42  43  44  45 0
 3-21G
 ****


