%nproc=1
%NoSave
%Mem=1900MB
#P OB98/GEN NMR

erre ene a

0 1
  C      210.085    -348.298    -105.862
  O      210.775    -348.396    -104.631
  H      209.019    -348.470    -105.683
  H      210.454    -349.055    -106.561
  H      210.215    -347.299    -106.291
  P      212.362    -348.175    -104.672
  C      212.658    -345.656    -104.119
  O      212.681    -346.989    -103.627
  C      212.791    -344.660    -102.963
  O      211.873    -345.047    -101.900
  C      214.201    -344.598    -102.354
  O      214.492    -343.238    -102.001
  C      214.066    -345.421    -101.082
  O      215.054    -345.083    -100.115
  C      212.636    -345.079    -100.676
  N      212.931    -346.715     -95.920
  C      213.590    -345.681     -96.557
  N      214.465    -344.965     -95.810
  N      213.410    -345.370     -97.813
  C      212.481    -346.145     -98.432
  C      211.773    -347.210     -97.921
  C      211.999    -347.556     -96.533
  O      211.461    -348.477     -95.921
  N      210.955    -347.767     -98.879
  C      211.175    -347.040     -99.962
  N      212.087    -346.041     -99.738
  O      212.609    -347.484    -106.096
  O      213.187    -349.408    -104.493
  H      214.856    -344.183     -99.783
  H      213.487    -347.715    -106.450
  H      213.116    -346.922     -94.958
  H      210.707    -347.193    -100.925
  H      212.565    -344.092    -100.197
  H      214.160    -346.489    -101.315
  H      214.632    -345.125     -94.831
  H      214.985    -344.979    -103.014
  H      214.947    -344.190     -96.258
  H      212.468    -343.675    -103.312
  H      211.709    -345.483    -104.638
  H      213.483    -345.519    -104.824
  P      216.022    -342.762    -102.070
  C      216.566    -342.326    -104.575
  O      216.196    -341.765    -103.321
  O      216.788    -344.094    -102.548
  O      216.560    -342.263    -100.769
  H      217.304    -344.457    -101.798
  H      216.643    -341.548    -105.305
  H      215.823    -343.032    -104.883
  H      217.510    -342.820    -104.480

 6  7  8  9  10  11  12  13  14  15  26  29  33  34 0
 6-311+G(2d,p)
 ****
 36  38  39  40  41 0
 6-311+G(2d,p)
 ****
 1  2  3  4  5  16  17  18  19  20  21  22  23  24  25 0
 3-21G
 ****
 27  28  30  31  32  35  37  42  43  44  45  46  47 0
 3-21G
 ****
 48  49 0
 3-21G
 ****


