%nproc=1
%NoSave
%Mem=1900MB
#P OB98/GEN NMR

erre ene a

0 1
  C     -285.518      49.278    -107.256
  O     -286.895      49.193    -106.928
  P     -287.864      48.436    -107.961
  C     -288.878      50.603    -109.053
  O     -288.067      49.448    -109.189
  C     -289.600      50.898    -110.372
  O     -288.631      51.151    -111.416
  C     -290.461      49.756    -110.893
  O     -291.695      49.664    -110.192
  C     -290.595      50.133    -112.362
  O     -291.605      51.141    -112.531
  C     -289.200      50.720    -112.667
  N     -288.316      49.785    -113.356
  C     -288.539      49.620    -114.722
  O     -289.420      50.218    -115.336
  N     -287.718      48.721    -115.354
  C     -286.766      47.944    -114.762
  O     -286.092      47.124    -115.370
  C     -286.599      48.137    -113.312
  C     -287.367      49.032    -112.690
  O     -289.248      48.486    -107.156
  O     -287.384      47.069    -108.321
  H     -289.287      49.245    -106.550
  H     -292.455      50.726    -112.283
  H     -287.844      48.601    -116.351
  H     -285.860      47.532    -112.806
  H     -287.268      49.182    -111.620
  H     -289.297      51.622    -113.286
  H     -290.871      49.280    -112.996
  H     -289.918      48.809    -110.806
  H     -290.203      51.806    -110.240
  H     -288.248      51.453    -108.784
  H     -289.603      50.440    -108.251
  P     -292.068      48.220    -109.587
  C     -292.537      47.389    -112.021
  O     -291.891      47.172    -110.785
  O     -293.653      48.360    -109.409
  O     -291.334      47.888    -108.329
  H     -294.078      48.801    -110.166
  H     -292.030      46.799    -112.787
  H     -292.507      48.441    -112.309
  H     -293.577      47.060    -111.950
  H     -284.999      49.805    -106.483
  H     -285.404      49.801    -108.182
  H     -285.112      48.292    -107.350

 3  4  5  6  7  8  9  10  11  12  13  24  28  29  30  31  32 0
 6-311+G(2d,p)
 ****
 33  34 0
 6-311+G(2d,p)
 ****
 1  2  14  15  16  17  18  19  20  21  22  23  25  26  27 0
 3-21G
 ****
 35  36  37  38  39  40  41  42  43  44  45 0
 3-21G
 ****


