%nproc=1
%NoSave
%Mem=1900MB
#P OB98/GEN NMR

erre ene a

0 1
  C      -87.881      28.075      -3.227
  O      -88.494      28.851      -4.235
  H      -88.545      28.042      -2.360
  H      -86.933      28.525      -2.922
  H      -87.713      27.053      -3.576
  P      -87.715      29.058      -5.622
  C      -88.002      31.610      -5.280
  O      -87.099      30.539      -5.508
  C      -87.248      32.936      -5.242
  O      -86.286      32.962      -4.165
  C      -86.431      33.245      -6.491
  O      -87.215      33.622      -7.609
  C      -85.580      34.388      -5.970
  O      -86.371      35.587      -5.898
  C      -85.218      33.868      -4.560
  N      -83.926      33.184      -4.526
  C      -82.793      33.991      -4.373
  O      -82.900      35.213      -4.284
  N      -81.554      33.397      -4.360
  C      -81.454      32.112      -4.510
  N      -80.202      31.578      -4.495
  C      -82.619      31.227      -4.693
  C      -83.810      31.821      -4.689
  O      -88.502      28.784      -6.862
  O      -86.403      28.153      -5.484
  H      -85.841      36.248      -5.416
  H      -85.889      28.237      -6.323
  H      -82.480      30.167      -4.843
  H      -84.714      31.237      -4.825
  H      -85.203      34.689      -3.832
  H      -84.718      34.608      -6.603
  H      -85.770      32.407      -6.743
  H      -87.983      33.725      -5.036
  H      -79.422      32.209      -4.368
  H      -88.519      31.425      -4.333
  H      -80.025      30.600      -4.680
  H      -88.740      31.656      -6.085
  P      -86.468      33.691      -9.032
  C      -86.857      36.259      -9.303
  O      -85.931      35.191      -9.184
  O      -87.673      33.598     -10.077
  O      -85.428      32.639      -9.255
  H      -87.768      32.686     -10.415
  H      -86.326      37.183      -9.395
  H      -87.479      36.290      -8.433
  H      -87.465      36.109     -10.171

 6  7  8  9  10  11  12  13  14  15  16  26  30  31  32  33  35 0
 6-311+G(2d,p)
 ****
 37  38 0
 6-311+G(2d,p)
 ****
 1  2  3  4  5  17  18  19  20  21  22  23  24  25 0
 3-21G
 ****
 27  28  29  34  36  39  40  41  42  43  44  45  46 0
 3-21G
 ****


