%nproc=1
%NoSave
%Mem=1900MB
#P OB98/GEN NMR

erre ene a

0 1
  C     -101.684    -111.145     -31.190
  O     -103.051    -111.352     -30.889
  H     -101.597    -110.870     -32.245
  H     -101.110    -112.061     -31.021
  H     -101.278    -110.333     -30.582
  P     -103.442    -111.846     -29.416
  C     -103.590    -114.320     -30.160
  O     -102.958    -113.370     -29.307
  C     -102.727    -115.573     -30.302
  O     -101.527    -115.272     -31.044
  C     -102.259    -116.161     -28.976
  O     -103.316    -116.845     -28.333
  C     -101.109    -117.034     -29.450
  O     -101.593    -118.262     -30.018
  C     -100.479    -116.138     -30.545
  N      -99.340    -115.354     -30.072
  C      -98.087    -115.974     -30.167
  O      -97.992    -117.118     -30.614
  N      -96.982    -115.280     -29.734
  C      -97.106    -114.068     -29.292
  N      -95.971    -113.436     -28.884
  C      -98.403    -113.369     -29.207
  C      -99.468    -114.067     -29.599
  O     -104.862    -111.615     -28.997
  O     -102.413    -111.071     -28.463
  H     -100.813    -118.705     -30.410
  H     -102.811    -110.243     -28.131
  H      -98.458    -112.355     -28.840
  H     -100.459    -113.626     -29.570
  H     -100.143    -116.748     -31.395
  H     -100.430    -117.304     -28.638
  H     -101.852    -115.372     -28.332
  H     -103.297    -116.310     -30.884
  H      -95.102    -113.951     -28.979
  H     -103.722    -113.839     -31.136
  H      -95.925    -112.449     -28.676
  H     -104.580    -114.588     -29.773
  P     -103.349    -117.032     -26.740
  C     -102.388    -119.384     -27.138
  O     -102.264    -118.171     -26.412
  O     -104.702    -117.267     -26.158
  O     -102.638    -115.708     -26.189
  H     -103.262    -114.940     -26.229
  H     -101.616    -120.061     -26.836
  H     -102.297    -119.184     -28.185
  H     -103.344    -119.822     -26.940

 6  7  8  9  10  11  12  13  14  15  16  26  30  31  32  33  35 0
 6-311+G(2d,p)
 ****
 37  38 0
 6-311+G(2d,p)
 ****
 1  2  3  4  5  17  18  19  20  21  22  23  24  25 0
 3-21G
 ****
 27  28  29  34  36  39  40  41  42  43  44  45  46 0
 3-21G
 ****


