%nproc=1
%NoSave
%Mem=1900MB
#P OB98/GEN NMR

erre ene a

0 1
  C      503.416     -40.495     129.804
  O      503.279     -39.771     131.010
  H      503.598     -39.789     128.992
  H      502.495     -41.043     129.595
  H      504.259     -41.188     129.867
  P      503.094     -40.629     132.354
  C      505.478     -41.325     133.102
  O      504.419     -40.387     133.233
  C      505.817     -41.949     134.454
  O      506.645     -43.131     134.233
  C      506.588     -41.022     135.406
  O      506.158     -41.302     136.745
  C      508.023     -41.499     135.257
  O      508.836     -41.140     136.372
  C      507.792     -43.002     135.098
  N      511.241     -46.536     136.064
  C      510.154     -46.115     136.807
  N      509.954     -46.729     137.992
  N      509.337     -45.172     136.421
  C      509.636     -44.667     135.200
  C      510.684     -44.990     134.369
  C      511.598     -46.020     134.820
  O      512.588     -46.419     134.215
  N      510.658     -44.233     133.225
  C      509.600     -43.453     133.366
  N      508.952     -43.678     134.548
  O      503.256     -42.133     131.834
  O      501.805     -40.420     133.075
  H      508.482     -41.597     137.163
  H      502.381     -42.516     131.627
  H      511.848     -47.256     136.414
  H      509.269     -42.710     132.652
  H      507.559     -43.494     136.051
  H      508.473     -41.072     134.353
  H      510.515     -47.493     138.334
  H      506.465     -39.954     135.193
  H      509.141     -46.467     138.533
  H      504.887     -42.300     134.918
  H      506.363     -40.811     132.714
  H      505.182     -42.105     132.393
  P      506.051     -40.080     137.775
  C      503.581     -39.468     137.237
  O      504.515     -39.924     138.203
  O      506.285     -38.801     136.834
  O      507.038     -40.129     138.893
  H      506.670     -38.074     137.358
  H      502.607     -39.419     137.678
  H      503.564     -40.146     136.409
  H      503.867     -38.495     136.895

 6  7  8  9  10  11  12  13  14  15  26  29  33  34 0
 6-311+G(2d,p)
 ****
 36  38  39  40  41 0
 6-311+G(2d,p)
 ****
 1  2  3  4  5  16  17  18  19  20  21  22  23  24  25 0
 3-21G
 ****
 27  28  30  31  32  35  37  42  43  44  45  46  47 0
 3-21G
 ****
 48  49 0
 3-21G
 ****


