%nproc=1
%NoSave
%Mem=1900MB
#P OB98/GEN NMR

erre ene a

0 1
  C      115.319     157.661    1133.922
  O      114.888     156.830    1134.978
  H      114.634     157.539    1133.077
  H      116.325     157.386    1133.603
  H      115.297     158.709    1134.238
  P      115.787     156.837    1136.309
  C      114.374     158.543    1137.649
  O      115.574     158.303    1136.927
  C      114.682     159.188    1139.001
  O      115.555     158.345    1139.768
  C      115.376     160.542    1138.904
  O      114.422     161.577    1138.696
  C      116.005     160.642    1140.286
  O      115.016     161.076    1141.241
  C      116.410     159.191    1140.581
  N      121.317     160.191    1141.706
  C      120.179     160.826    1142.041
  N      118.909     160.538    1141.661
  C      118.888     159.461    1140.862
  C      119.974     158.714    1140.428
  C      121.238     159.110    1140.899
  N      122.403     158.461    1140.552
  N      119.565     157.677    1139.611
  C      118.256     157.766    1139.595
  N      117.794     158.851    1140.303
  O      117.203     156.393    1136.141
  O      114.900     155.923    1137.281
  H      115.429     161.009    1142.123
  H      113.954     156.125    1137.173
  H      120.290     161.682    1142.697
  H      117.585     157.063    1139.106
  H      116.230     158.920    1141.630
  H      116.823     161.359    1140.325
  H      116.165     160.544    1138.150
  H      113.734     159.266    1139.556
  H      113.831     157.604    1137.809
  H      123.273     158.924    1140.765
  H      122.351     157.740    1139.842
  H      113.750     159.204    1137.043
  P      114.868     163.010    1138.139
  C      114.585     162.378    1135.665
  O      115.508     162.722    1136.698
  O      115.711     163.801    1139.079
  O      113.493     163.744    1137.786
  H      113.631     164.702    1137.692
  H      115.118     162.208    1134.753
  H      113.889     163.179    1135.528
  H      114.057     161.489    1135.940

 6  7  8  9  10  11  12  13  14  15  25  28  32  33  34  35 0
 6-311+G(2d,p)
 ****
 36  39  40 0
 6-311+G(2d,p)
 ****
 1  2  3  4  5  16  17  18  19  20  21  22  23  24 0
 3-21G
 ****
 26  27  29  30  31  37  38  41  42  43  44  45  46  47 0
 3-21G
 ****
 48 0
 3-21G
 ****


