%nproc=1
%NoSave
%Mem=1900MB
#P OB98/GEN NMR

erre ene a

0 1
  C     -334.504     880.748    -119.889
  O     -333.752     881.698    -119.125
  P     -332.354     881.195    -118.498
  C     -333.235     880.829    -116.073
  O     -332.711     880.237    -117.262
  C     -333.965     879.790    -115.231
  O     -333.037     878.920    -114.543
  C     -334.854     880.385    -114.136
  O     -336.091     880.847    -114.647
  C     -335.044     879.183    -113.233
  O     -336.109     878.348    -113.743
  C     -333.692     878.447    -113.352
  N     -332.616     877.179    -108.562
  C     -333.604     876.707    -109.399
  N     -334.405     875.744    -108.895
  N     -333.792     877.132    -110.614
  C     -332.900     878.081    -110.989
  C     -331.872     878.633    -110.253
  C     -331.698     878.168    -108.900
  O     -330.853     878.573    -108.101
  N     -331.174     879.563    -110.988
  C     -331.751     879.561    -112.154
  N     -332.821     878.682    -112.219
  O     -331.771     882.501    -117.805
  O     -331.410     880.621    -119.511
  H     -336.210     877.605    -113.121
  H     -330.795     882.463    -117.766
  H     -332.515     876.810    -107.630
  H     -331.447     880.157    -113.007
  H     -333.829     877.368    -113.458
  H     -335.327     879.444    -112.215
  H     -334.269     875.302    -107.999
  H     -334.311     881.180    -113.591
  H     -335.115     875.351    -109.518
  H     -334.589     879.181    -115.907
  H     -333.925     881.640    -116.335
  H     -332.408     881.292    -115.519
  P     -336.281     882.438    -114.780
  C     -337.569     882.418    -112.517
  O     -336.509     882.968    -113.278
  O     -337.731     882.551    -115.447
  O     -335.238     883.119    -115.576
  H     -337.787     883.389    -115.972
  H     -337.624     881.339    -112.638
  H     -338.507     882.889    -112.822
  H     -337.393     882.650    -111.467
  H     -335.403     881.207    -120.244
  H     -334.752     879.910    -119.272
  H     -333.919     880.417    -120.722

 3  4  5  6  7  8  9  10  11  12  23  26  30  31  33  0
 6-311+G(2d,p)
 ****
 35  36  37  38 0
 6-311+G(2d,p)
 ****
 1  2  13  14  15  16  17  18  19  20  21  22  24  25  27  28  29 0
 3-21G
 ****
 32  34  39  40  41  42  43  44  45  46  47  48  49 0
 3-21G
 ****


