%nproc=1
%NoSave
%Mem=1900MB
#P OB98/GEN NMR

erre ene a

0 1
  C      452.798     585.937     259.199
  O      452.133     584.804     258.678
  P      452.810     583.953     257.505
  C      450.904     584.135     255.780
  O      451.630     583.271     256.654
  C      449.604     583.469     255.337
  O      449.880     582.340     254.486
  C      448.764     582.915     256.486
  O      448.091     583.962     257.161
  C      447.859     581.937     255.751
  O      446.753     582.634     255.147
  C      448.803     581.390     254.668
  N      447.610     576.562     255.799
  C      446.852     577.672     255.664
  N      447.248     578.936     255.401
  C      448.588     578.993     255.295
  C      449.492     577.953     255.440
  C      448.959     576.676     255.685
  N      449.714     575.526     255.760
  N      450.790     578.424     255.289
  C      450.661     579.712     255.069
  N      449.345     580.092     254.994
  O      453.898     583.028     257.927
  O      453.373     585.071     256.504
  H      446.170     582.938     255.867
  H      454.343     584.969     256.426
  H      445.776     577.521     255.779
  H      451.480     580.407     254.940
  H      448.299     581.299     253.700
  H      447.448     581.174     256.406
  H      449.404     582.360     257.183
  H      449.027     584.201     254.752
  H      451.530     584.342     254.910
  H      449.216     574.653     255.788
  H      450.655     575.552     255.378
  H      450.691     585.077     256.297
  P      448.180     584.071     258.755
  C      445.656     584.536     258.634
  O      446.884     584.885     259.244
  O      449.480     584.564     259.295
  O      447.861     582.578     259.254
  H      448.353     582.409     260.080
  H      445.606     584.979     257.636
  H      444.841     584.925     259.242
  H      445.557     583.452     258.560
  H      452.201     586.378     259.970
  H      452.954     586.650     258.417
  H      453.743     585.641     259.605

 3  4  5  6  7  8  9  10  11  12  22  25  29  30  31  32 0
 6-311+G(2d,p)
 ****
 33  36  37 0
 6-311+G(2d,p)
 ****
 1  2  13  14  15  16  17  18  19  20  21  23  24  26 0
 3-21G
 ****
 27  28  34  35  38  39  40  41  42  43  44  45  46  47  48 0
 3-21G
 ****


