%nproc=1
%NoSave
%Mem=1900MB
#P OB98/GEN NMR

erre ene a

0 1
  C       18.819    -859.288      95.914
  O       17.862    -858.433      95.329
  P       17.022    -858.890      94.033
  C       17.139    -856.463      93.186
  O       17.398    -857.828      92.891
  C       17.946    -855.560      92.242
  O       19.331    -855.563      92.676
  C       17.979    -856.002      90.778
  O       16.852    -855.575      90.002
  C       19.227    -855.271      90.290
  O       18.916    -853.877      90.057
  C       20.160    -855.405      91.494
  N       24.841    -856.899      90.059
  C       24.253    -855.691      90.091
  N       22.989    -855.367      90.466
  C       22.340    -856.465      90.892
  C       22.817    -857.761      90.931
  C       24.133    -857.982      90.484
  N       24.747    -859.214      90.487
  N       21.845    -858.628      91.411
  C       20.810    -857.855      91.673
  N       21.068    -856.532      91.371
  O       15.557    -859.087      94.282
  O       17.752    -860.226      93.545
  H       18.098    -853.858      89.535
  H       17.174    -860.723      92.942
  H       24.859    -854.857      89.736
  H       19.860    -858.189      92.068
  H       20.769    -854.501      91.657
  H       19.614    -855.682      89.350
  H       18.139    -857.086      90.687
  H       17.561    -854.541      92.336
  H       17.457    -856.275      94.222
  H       25.724    -859.242      90.274
  H       24.270    -859.981      90.953
  H       16.065    -856.264      93.112
  P       16.083    -856.703      89.158
  C       14.579    -854.902      88.005
  O       15.513    -855.944      87.863
  O       15.083    -857.493      89.941
  O       17.293    -857.594      88.569
  H       17.850    -857.143      87.916
  H       14.442    -854.401      87.024
  H       14.935    -854.150      88.717
  H       13.609    -855.292      88.320
  H       19.263    -858.802      96.758
  H       19.577    -859.519      95.195
  H       18.343    -860.191      96.233

 3  4  5  6  7  8  9  10  11  12  22  25  29  30  31  32 0
 6-311+G(2d,p)
 ****
 33  36  37 0
 6-311+G(2d,p)
 ****
 1  2  13  14  15  16  17  18  19  20  21  23  24  26 0
 3-21G
 ****
 27  28  34  35  38  39  40  41  42  43  44  45  46  47  48 0
 3-21G
 ****


