%nproc=1
%NoSave
%Mem=1900MB
#P OB98/GEN NMR

erre ene a

0 1
  C     -241.862     286.383     310.741
  O     -241.814     285.283     309.848
  P     -240.409     284.730     309.303
  C     -240.555     286.453     307.398
  O     -239.752     285.917     308.450
  C     -239.840     286.325     306.055
  O     -240.667     286.916     305.025
  C     -238.488     287.037     306.021
  O     -237.585     286.277     305.217
  C     -238.774     288.345     305.298
  O     -237.599     288.855     304.654
  C     -239.903     287.929     304.349
  N     -240.317     292.471     301.984
  C     -239.280     291.614     302.098
  N     -239.232     290.434     302.762
  C     -240.429     290.148     303.302
  C     -241.577     290.929     303.268
  C     -241.492     292.150     302.572
  N     -242.553     293.027     302.445
  N     -242.607     290.321     303.965
  C     -242.093     289.190     304.397
  N     -240.785     289.033     304.011
  O     -240.478     283.420     308.597
  O     -239.480     284.662     310.604
  H     -237.146     288.096     304.228
  H     -238.909     283.873     310.566
  H     -238.362     291.904     301.595
  H     -242.615     288.449     304.990
  H     -239.511     287.501     303.421
  H     -239.116     289.098     306.024
  H     -238.063     287.198     307.012
  H     -239.726     285.264     305.820
  H     -240.736     287.511     307.611
  H     -242.431     293.807     301.827
  H     -243.472     292.699     302.730
  H     -241.518     285.936     307.371
  P     -236.193     285.864     305.914
  C     -234.969     287.700     304.524
  O     -235.275     287.175     305.798
  O     -235.639     284.595     305.360
  O     -236.631     285.790     307.456
  H     -237.421     286.352     307.630
  H     -234.312     288.566     304.652
  H     -235.887     288.032     304.023
  H     -234.460     286.952     303.916
  H     -242.881     286.599     310.986
  H     -241.418     287.239     310.277
  H     -241.324     286.142     311.634

 3  4  5  6  7  8  9  10  11  12  22  25  29  30  31  32 0
 6-311+G(2d,p)
 ****
 33  36  37 0
 6-311+G(2d,p)
 ****
 1  2  13  14  15  16  17  18  19  20  21  23  24  26 0
 3-21G
 ****
 27  28  34  35  38  39  40  41  42  43  44  45  46  47  48 0
 3-21G
 ****


