%nproc=1
%NoSave
%Mem=1900MB
#P OB98/GEN NMR

erre ene a

0 1
  C        7.141     294.123      26.594
  O        8.283     293.293      26.460
  P        8.123     291.723      26.753
  C        9.156     291.535      29.132
  O        9.313     291.296      27.748
  C        9.472     290.268      29.936
  O        8.324     289.367      29.896
  C       10.685     289.485      29.409
  O       11.339     288.886      30.537
  C       10.033     288.401      28.571
  O       10.885     287.295      28.323
  C        8.801     288.091      29.434
  N        7.770     287.355      28.703
  C        7.941     285.984      28.563
  O        8.906     285.362      29.013
  N        6.984     285.339      27.826
  C        5.954     285.921      27.156
  O        5.199     285.301      26.412
  C        5.813     287.378      27.339
  C        6.714     288.014      28.091
  O        8.530     291.049      25.362
  O        6.761     291.308      27.201
  H       11.121     286.909      29.181
  H        7.731     290.791      24.857
  H        7.085     284.334      27.715
  H        4.995     287.872      26.837
  H        6.655     289.088      28.228
  H        9.104     287.521      30.320
  H        9.745     288.820      27.595
  H       11.391     290.098      28.841
  H        9.632     290.547      30.987
  H        8.123     291.830      29.332
  H        9.806     292.363      29.447
  P       12.948     288.932      30.587
  C       13.261     286.330      30.677
  O       13.421     287.580      31.311
  O       13.177     290.066      31.693
  O       13.586     289.239      29.269
  H       12.580     289.976      32.460
  H       13.387     286.418      29.589
  H       12.267     285.941      30.897
  H       14.008     285.640      31.058
  H        7.407     295.134      26.367
  H        6.775     294.067      27.598
  H        6.380     293.794      25.918

 3  4  5  6  7  8  9  10  11  12  13  23  28  29  30  31  32 0
 6-311+G(2d,p)
 ****
 33  34 0
 6-311+G(2d,p)
 ****
 1  2  14  15  16  17  18  19  20  21  22  24  25  26 0
 3-21G
 ****
 27  35  36  37  38  39  40  41  42  43  44  45 0
 3-21G
 ****


