%nproc=1
%NoSave
%Mem=1900MB
#P OB98/GEN NMR

erre ene a

0 1
  C       69.631     145.160    -142.538
  O       70.190     145.291    -143.831
  H       68.796     145.854    -142.417
  H       69.261     144.139    -142.418
  H       70.391     145.353    -141.775
  P       70.821     146.720    -144.197
  C       72.711     146.046    -142.553
  O       71.845     147.072    -143.013
  C       73.716     146.615    -141.557
  O       74.373     145.545    -140.846
  C       74.836     147.441    -142.181
  O       74.411     148.760    -142.486
  C       75.858     147.430    -141.054
  O       75.487     148.396    -140.053
  C       75.704     146.007    -140.497
  N       80.637     144.652    -140.494
  C       79.959     145.588    -139.797
  N       78.641     145.876    -139.837
  C       78.006     145.063    -140.695
  C       78.556     144.050    -141.460
  C       79.942     143.854    -141.343
  N       80.636     142.936    -142.115
  N       77.588     143.441    -142.236
  C       76.479     144.092    -141.957
  N       76.679     145.076    -141.027
  O       69.594     147.723    -143.952
  O       71.364     146.838    -145.581
  H       76.134     148.309    -139.327
  H       69.156     147.906    -144.804
  H       80.555     146.191    -139.120
  H       75.514     143.889    -142.404
  H       75.778     145.980    -139.404
  H       76.868     147.682    -141.389
  H       75.264     146.940    -143.057
  H       73.161     147.209    -140.820
  H       73.250     145.615    -143.403
  H       81.601     143.201    -142.289
  H       80.114     142.571    -142.901
  H       72.109     145.265    -142.080
  P       75.299     149.610    -143.517
  C       74.138     148.548    -145.569
  O       75.361     148.757    -144.877
  O       76.775     149.473    -142.914
  O       74.908     151.039    -143.666
  H       77.151     150.361    -142.754
  H       74.321     147.970    -146.450
  H       73.718     149.493    -145.844
  H       73.454     148.024    -144.934

 6  7  8  9  10  11  12  13  14  15  25  28  32  33  34  35 0
 6-311+G(2d,p)
 ****
 36  39  40 0
 6-311+G(2d,p)
 ****
 1  2  3  4  5  16  17  18  19  20  21  22  23  24 0
 3-21G
 ****
 26  27  29  30  31  37  38  41  42  43  44  45  46  47  48 0
 3-21G
 ****


