%nproc=1
%NoSave
%Mem=1900MB
#P OB98/GEN NMR

erre ene a

0 1
  C      145.967     190.568      39.174
  O      145.826     190.700      37.770
  P      146.143     192.144      37.138
  C      143.707     193.028      37.467
  O      145.084     193.158      37.784
  C      142.886     193.979      38.340
  O      143.066     193.661      39.734
  C      143.259     195.448      38.186
  O      142.638     196.001      37.043
  C      142.757     196.028      39.504
  O      141.339     196.274      39.448
  C      143.082     194.901      40.494
  N      145.463     197.095      44.378
  C      144.185     197.297      43.889
  N      143.418     198.181      44.565
  N      143.703     196.688      42.839
  C      144.586     195.842      42.257
  C      145.882     195.570      42.636
  C      146.383     196.213      43.830
  O      147.469     195.995      44.358
  N      146.476     194.675      41.787
  C      145.531     194.384      40.914
  N      144.359     195.049      41.168
  O      145.662     191.989      35.623
  O      147.566     192.588      37.249
  H      141.153     196.929      38.752
  H      146.420     191.806      35.036
  H      145.772     197.582      45.200
  H      145.638     193.685      40.099
  H      142.319     194.808      41.277
  H      143.230     196.985      39.740
  H      143.728     198.705      45.365
  H      144.350     195.560      38.127
  H      142.479     198.342      44.218
  H      141.825     193.826      38.097
  H      143.389     191.998      37.659
  H      143.559     193.254      36.407
  P      143.264     197.349      36.439
  C      142.319     198.915      38.282
  O      143.465     198.366      37.658
  O      142.047     197.980      35.608
  O      144.460     197.143      35.573
  H      142.390     198.417      34.806
  H      142.554     199.120      39.328
  H      141.464     198.235      38.236
  H      142.057     199.854      37.788
  H      145.728     189.566      39.464
  H      145.303     191.249      39.665
  H      146.976     190.789      39.454

 3  4  5  6  7  8  9  10  11  12  23  26  30  31 0
 6-311+G(2d,p)
 ****
 33  35  36  37  38 0
 6-311+G(2d,p)
 ****
 1  2  13  14  15  16  17  18  19  20  21  22  24  25 0
 3-21G
 ****
 27  28  29  32  34  39  40  41  42  43  44  45  46  47  48  49 0
 3-21G
 ****


