%nproc=1
%NoSave
%Mem=1900MB
#P OB98/GEN NMR

erre ene a

0 1
  C      583.045    -246.410    -209.852
  O      583.180    -245.745    -208.594
  P      582.079    -246.102    -207.483
  C      583.550    -246.695    -205.429
  O      582.722    -247.174    -206.476
  C      585.026    -246.966    -205.740
  O      585.460    -246.316    -206.948
  C      585.966    -246.487    -204.646
  O      585.990    -247.421    -203.578
  C      587.293    -246.401    -205.392
  O      587.947    -247.687    -205.447
  C      586.857    -245.960    -206.799
  N      589.949    -242.467    -208.778
  C      590.173    -243.807    -208.529
  N      591.383    -244.288    -208.878
  N      589.288    -244.600    -207.986
  C      588.122    -243.982    -207.687
  C      587.774    -242.671    -207.910
  C      588.763    -241.800    -208.508
  O      588.607    -240.612    -208.768
  N      586.477    -242.423    -207.532
  C      586.092    -243.552    -206.964
  N      587.030    -244.548    -207.090
  O      580.989    -246.941    -208.301
  O      581.477    -244.900    -206.834
  H      587.355    -248.324    -205.888
  H      580.169    -246.417    -208.391
  H      590.671    -241.897    -209.187
  H      585.143    -243.704    -206.476
  H      587.410    -246.499    -207.579
  H      587.994    -245.722    -204.903
  H      592.113    -243.737    -209.304
  H      585.668    -245.491    -204.298
  H      591.564    -245.273    -208.712
  H      585.139    -248.049    -205.876
  H      583.276    -247.175    -204.489
  H      583.371    -245.622    -205.300
  P      585.277    -247.002    -202.205
  C      583.595    -248.966    -201.996
  O      583.787    -247.584    -202.236
  O      585.076    -245.421    -202.368
  O      586.066    -247.317    -200.978
  H      585.325    -244.972    -201.538
  H      582.613    -249.111    -201.545
  H      584.358    -249.371    -201.325
  H      583.629    -249.503    -202.948
  H      583.830    -246.095    -210.508
  H      582.098    -246.165    -210.285
  H      583.106    -247.468    -209.705

 3  4  5  6  7  8  9  10  11  12  23  26  30  31 0
 6-311+G(2d,p)
 ****
 33  35  36  37  38 0
 6-311+G(2d,p)
 ****
 1  2  13  14  15  16  17  18  19  20  21  22  24  25 0
 3-21G
 ****
 27  28  29  32  34  39  40  41  42  43  44  45  46  47  48  49 0
 3-21G
 ****


