%nproc=1
%NoSave
%Mem=1900MB
#P OB98/GEN NMR

erre ene a

0 1
  C      167.313      77.159     335.153
  O      166.619      75.923     335.398
  P      166.306      75.363     336.865
  C      164.850      76.945     338.320
  O      164.867      75.929     337.319
  C      163.556      76.886     339.131
  O      162.410      77.106     338.267
  C      163.259      75.546     339.797
  O      164.092      75.309     340.924
  C      161.779      75.697     340.129
  O      161.588      76.396     341.371
  C      161.264      76.560     338.957
  N      160.404      75.822     338.048
  C      159.132      76.346     337.814
  O      158.749      77.346     338.430
  N      158.316      75.722     336.898
  C      158.702      74.611     336.350
  N      157.855      74.039     335.439
  C      159.978      73.947     336.672
  C      160.775      74.603     337.516
  O      167.394      75.621     337.863
  O      166.061      73.793     336.681
  H      166.268      73.325     337.508
  H      161.919      77.303     341.236
  H      160.241      72.999     336.220
  H      161.744      74.190     337.795
  H      160.715      77.427     339.341
  H      161.277      74.725     340.226
  H      163.390      74.740     339.063
  H      163.585      77.689     339.881
  H      156.993      74.531     335.232
  H      164.917      77.920     337.825
  H      158.069      73.190     334.936
  H      165.727      76.824     338.969
  P      165.157      74.113     340.808
  C      167.672      73.891     340.199
  O      166.527      74.730     340.254
  O      164.605      73.245     339.583
  O      165.287      73.282     342.044
  H      164.730      72.293     339.771
  H      168.328      74.262     339.403
  H      167.402      72.855     339.989
  H      168.208      73.955     341.149
  H      167.400      77.316     334.098
  H      168.289      77.112     335.588
  H      166.766      77.968     335.590

 3  4  5  6  7  8  9  10  11  12  13  24  27  28  29  30  32 0
 6-311+G(2d,p)
 ****
 34  35 0
 6-311+G(2d,p)
 ****
 1  2  14  15  16  17  18  19  20  21  22  23  25  26 0
 3-21G
 ****
 31  33  36  37  38  39  40  41  42  43  44  45  46 0
 3-21G
 ****


