%nproc=1
%NoSave
%Mem=1900MB
#P OB98/GEN NMR

erre ene a

0 1
  C     -132.683    -135.781    -224.074
  O     -133.551    -134.900    -223.391
  H     -132.230    -135.245    -224.911
  H     -133.245    -136.632    -224.464
  H     -131.892    -136.129    -223.406
  P     -134.312    -135.477    -222.098
  C     -136.608    -134.402    -222.685
  O     -135.854    -135.598    -222.546
  C     -137.538    -134.498    -223.898
  O     -138.339    -133.293    -223.980
  C     -136.791    -134.653    -225.224
  O     -137.453    -135.633    -226.026
  C     -136.880    -133.280    -225.865
  O     -136.791    -133.341    -227.287
  C     -138.210    -132.755    -225.309
  N     -138.255    -131.295    -225.296
  C     -138.854    -130.672    -226.397
  O     -139.302    -131.350    -227.325
  N     -138.884    -129.302    -226.449
  C     -138.311    -128.610    -225.516
  N     -138.356    -127.256    -225.636
  C     -137.625    -129.223    -224.362
  C     -137.640    -130.555    -224.314
  O     -134.306    -134.234    -221.094
  O     -133.732    -136.726    -221.523
  H     -137.570    -133.841    -227.618
  H     -134.552    -134.508    -220.177
  H     -137.147    -128.604    -223.617
  H     -137.158    -131.089    -223.503
  H     -139.053    -133.126    -225.908
  H     -136.054    -132.656    -225.503
  H     -135.751    -134.950    -225.093
  H     -138.237    -135.326    -223.736
  H     -138.825    -126.871    -226.446
  H     -135.921    -133.560    -222.813
  H     -137.918    -126.621    -224.985
  H     -137.203    -134.245    -221.779
  P     -136.710    -137.049    -226.162
  C     -136.934    -137.390    -228.721
  O     -136.067    -137.120    -227.632
  O     -137.916    -138.100    -226.220
  O     -135.759    -137.334    -225.048
  H     -138.051    -138.513    -225.347
  H     -136.370    -137.407    -229.630
  H     -137.682    -136.627    -228.779
  H     -137.404    -138.340    -228.575

 6  7  8  9  10  11  12  13  14  15  16  26  30  31  32  33  35 0
 6-311+G(2d,p)
 ****
 37  38 0
 6-311+G(2d,p)
 ****
 1  2  3  4  5  17  18  19  20  21  22  23  24  25 0
 3-21G
 ****
 27  28  29  34  36  39  40  41  42  43  44  45  46 0
 3-21G
 ****


