%nproc=1
%NoSave
%Mem=1900MB
#P OB98/GEN NMR

erre ene a

0 1
  C      -45.305     -11.272     276.637
  O      -44.561     -10.643     277.662
  H      -45.024     -10.826     275.680
  H      -46.373     -11.114     276.801
  H      -45.086     -12.341     276.609
  P      -44.686     -11.276     279.136
  C      -46.368      -9.537     280.154
  O      -46.139     -10.846     279.664
  C      -47.826      -9.372     280.590
  O      -48.676      -9.473     279.419
  C      -48.293     -10.429     281.596
  O      -49.182      -9.808     282.525
  C      -49.050     -11.427     280.739
  O      -49.998     -12.174     281.502
  C      -49.642     -10.516     279.653
  N      -49.953     -11.245     278.423
  C      -51.270     -11.695     278.274
  O      -52.099     -11.496     279.161
  N      -51.605     -12.401     277.147
  C      -50.685     -12.695     276.274
  N      -51.078     -13.415     275.186
  C      -49.274     -12.283     276.415
  C      -48.985     -11.562     277.497
  O      -43.683     -10.351     279.973
  O      -44.383     -12.736     279.203
  H      -50.510     -12.738     280.879
  H      -43.740      -9.406     279.743
  H      -48.544     -12.567     275.668
  H      -47.970     -11.212     277.675
  H      -50.565     -10.041     280.012
  H      -48.347     -12.140     280.289
  H      -47.474     -10.904     282.136
  H      -47.957      -8.359     280.988
  H      -52.052     -13.694     275.135
  H      -46.133      -8.796     279.381
  H      -50.442     -13.742     274.473
  H      -45.698      -9.369     281.005
  P      -48.601      -9.234     283.904
  C      -48.060     -11.440     285.134
  O      -47.537     -10.283     284.496
  O      -49.616      -8.749     284.887
  O      -47.656      -8.029     283.418
  H      -47.754      -7.296     284.064
  H      -47.253     -12.051     285.481
  H      -48.654     -11.994     284.437
  H      -48.667     -11.146     285.965

 6  7  8  9  10  11  12  13  14  15  16  26  30  31  32  33  35 0
 6-311+G(2d,p)
 ****
 37  38 0
 6-311+G(2d,p)
 ****
 1  2  3  4  5  17  18  19  20  21  22  23  24  25 0
 3-21G
 ****
 27  28  29  34  36  39  40  41  42  43  44  45  46 0
 3-21G
 ****


