%nproc=1
%NoSave
%Mem=1900MB
#P OB98/GEN NMR

erre ene a

0 1
  C      732.090    -182.400     212.537
  O      732.377    -183.364     211.511
  P      731.936    -184.903     211.640
  C      729.694    -186.149     211.379
  O      730.531    -185.100     210.888
  C      728.584    -186.502     210.377
  O      727.680    -185.394     210.210
  C      729.077    -186.861     208.982
  O      729.573    -188.192     208.952
  C      727.821    -186.617     208.150
  O      726.932    -187.750     208.240
  C      727.213    -185.394     208.846
  N      725.551    -181.811     205.587
  C      724.978    -182.937     206.070
  N      725.487    -183.847     206.931
  C      726.719    -183.482     207.317
  C      727.437    -182.371     206.911
  C      726.807    -181.513     205.997
  N      727.411    -180.382     205.490
  N      728.690    -182.356     207.498
  C      728.707    -183.427     208.273
  N      727.543    -184.147     208.199
  O      731.965    -185.428     213.034
  O      732.969    -185.700     210.711
  H      727.403    -188.522     207.893
  H      733.079    -186.609     211.047
  H      723.962    -183.128     205.717
  H      729.545    -183.723     208.899
  H      726.114    -185.462     208.889
  H      728.043    -186.462     207.090
  H      729.864    -186.160     208.669
  H      728.007    -187.330     210.806
  H      729.245    -185.818     212.322
  H      726.906    -179.829     204.812
  H      728.363    -180.173     205.760
  H      730.319    -187.024     211.564
  P      731.148    -188.462     209.088
  C      732.532    -189.265     211.096
  O      731.511    -188.391     210.645
  O      732.026    -187.655     208.188
  O      731.278    -190.026     208.774
  H      732.155    -190.211     208.382
  H      732.104    -190.267     211.247
  H      732.916    -188.898     212.040
  H      733.348    -189.313     210.381
  H      732.472    -181.444     212.245
  H      732.553    -182.705     213.452
  H      731.031    -182.333     212.678

 3  4  5  6  7  8  9  10  11  12  22  25  29  30  31  32 0
 6-311+G(2d,p)
 ****
 33  36  37 0
 6-311+G(2d,p)
 ****
 1  2  13  14  15  16  17  18  19  20  21  23  24  26 0
 3-21G
 ****
 27  28  34  35  38  39  40  41  42  43  44  45  46  47  48 0
 3-21G
 ****


