%nproc=1
%NoSave
%Mem=1900MB
#P OB98/GEN NMR

erre ene a

0 1
  C      -58.529     339.703    -339.968
  O      -57.676     338.884    -340.751
  P      -56.139     339.327    -340.891
  C      -56.576     340.586    -343.106
  O      -55.867     339.540    -342.458
  C      -56.908     340.210    -344.545
  O      -55.669     340.062    -345.289
  C      -57.690     338.896    -344.691
  O      -58.733     339.068    -345.663
  C      -56.670     337.936    -345.280
  O      -57.288     336.882    -346.014
  C      -55.839     338.901    -346.125
  N      -53.553     335.676    -349.267
  C      -54.853     336.140    -349.274
  N      -55.667     335.622    -350.219
  N      -55.310     337.025    -348.431
  C      -54.371     337.476    -347.560
  C      -53.049     337.101    -347.462
  C      -52.570     336.075    -348.366
  O      -51.460     335.561    -348.355
  N      -52.408     337.792    -346.468
  C      -53.339     338.585    -345.961
  N      -54.560     338.389    -346.557
  O      -55.352     337.979    -340.548
  O      -55.714     340.445    -339.998
  H      -56.615     336.535    -346.631
  H      -54.728     338.135    -339.811
  H      -53.254     334.985    -349.933
  H      -53.185     339.278    -345.146
  H      -56.399     339.205    -347.020
  H      -56.080     337.495    -344.470
  H      -55.373     334.966    -350.922
  H      -58.118     338.517    -343.755
  H      -56.623     335.966    -350.254
  H      -57.455     341.042    -345.007
  H      -55.963     341.493    -343.102
  H      -57.499     340.784    -342.552
  P      -59.989     339.957    -345.197
  C      -61.651     338.571    -346.654
  O      -61.069     339.833    -346.376
  O      -59.450     341.457    -345.331
  O      -60.478     339.639    -343.821
  H      -59.949     342.051    -344.736
  H      -61.404     337.823    -345.892
  H      -61.295     338.221    -347.625
  H      -62.737     338.688    -346.692
  H      -59.516     339.289    -339.964
  H      -58.557     340.689    -340.384
  H      -58.157     339.749    -338.966

 3  4  5  6  7  8  9  10  11  12  23  26  30  31  33  0
 6-311+G(2d,p)
 ****
 35  36  37  38 0
 6-311+G(2d,p)
 ****
 1  2  13  14  15  16  17  18  19  20  21  22  24  25  27  28  29 0
 3-21G
 ****
 32  34  39  40  41  42  43  44  45  46  47  48  49 0
 3-21G
 ****


