%nproc=1
%NoSave
%Mem=1900MB
#P OB98/GEN NMR

erre ene a

0 1
  C       10.130     419.011     105.098
  O        9.464     418.456     103.986
  H       10.837     419.764     104.742
  H       10.686     418.227     105.619
  H        9.430     419.486     105.790
  P        8.084     417.683     104.224
  C        9.079     415.629     103.016
  O        8.378     416.104     104.159
  C       10.050     414.504     103.375
  O       11.042     414.998     104.303
  C        9.355     413.324     104.058
  O        8.822     412.359     103.166
  C       10.487     412.729     104.892
  O       11.244     411.769     104.137
  C       11.355     413.949     105.230
  N       10.890     412.721     110.171
  C       10.875     411.891     109.067
  N       10.675     410.578     109.317
  N       11.025     412.320     107.842
  C       11.116     413.665     107.743
  C       11.122     414.591     108.765
  C       11.031     414.103     110.122
  O       11.052     414.794     111.133
  N       11.188     415.874     108.279
  C       11.134     415.727     106.970
  N       11.171     414.402     106.596
  O        7.275     417.938     102.861
  O        7.284     418.137     105.407
  H       10.648     411.027     103.913
  H        6.319     417.962     103.051
  H       10.799     412.331     111.091
  H       11.111     416.534     106.251
  H       12.422     413.725     105.111
  H       10.093     412.205     105.765
  H       10.470     410.207     110.229
  H        8.577     413.674     104.741
  H       10.469     409.965     108.527
  H       10.586     414.186     102.473
  H        9.626     416.480     102.611
  H        8.373     415.295     102.249
  P        7.247     412.108     103.076
  C        7.726     409.954     104.498
  O        6.848     411.006     104.158
  O        7.083     411.336     101.683
  O        6.396     413.336     103.140
  H        6.806     411.952     100.980
  H        7.267     409.332     105.238
  H        8.636     410.361     104.888
  H        7.941     409.373     103.626

 6  7  8  9  10  11  12  13  14  15  26  29  33  34 0
 6-311+G(2d,p)
 ****
 36  38  39  40  41 0
 6-311+G(2d,p)
 ****
 1  2  3  4  5  16  17  18  19  20  21  22  23  24  25 0
 3-21G
 ****
 27  28  30  31  32  35  37  42  43  44  45  46  47 0
 3-21G
 ****
 48  49 0
 3-21G
 ****


