%nproc=1
%NoSave
%Mem=1900MB
#P OB98/GEN NMR

erre ene a

0 1
  C      612.353    -231.832    -591.278
  O      612.853    -230.828    -592.143
  H      611.837    -232.583    -591.879
  H      611.640    -231.395    -590.574
  H      613.175    -232.311    -590.737
  P      613.806    -229.717    -591.480
  C      611.960    -227.979    -590.787
  O      612.898    -228.967    -590.390
  C      610.895    -227.790    -589.710
  O      611.541    -227.339    -588.485
  C      609.819    -226.764    -590.073
  O      608.564    -227.219    -589.563
  C      610.254    -225.507    -589.336
  O      609.160    -224.619    -589.100
  C      610.911    -226.105    -588.079
  N      611.878    -225.189    -587.479
  C      611.401    -224.352    -586.459
  O      610.214    -224.389    -586.130
  N      612.268    -223.462    -585.876
  C      613.486    -223.364    -586.306
  N      614.287    -222.454    -585.701
  C      614.019    -224.191    -587.414
  C      613.172    -225.078    -587.935
  O      613.936    -228.651    -592.667
  O      615.111    -230.248    -590.974
  H      609.531    -223.746    -588.844
  H      613.101    -228.489    -593.135
  H      615.034    -224.064    -587.752
  H      613.482    -225.732    -588.749
  H      610.151    -226.348    -587.331
  H      611.000    -224.971    -589.933
  H      609.738    -226.591    -591.145
  H      610.449    -228.766    -589.479
  H      613.882    -221.893    -584.956
  H      611.480    -228.265    -591.725
  H      615.236    -222.255    -585.993
  H      612.506    -227.047    -590.951
  P      607.547    -227.973    -590.544
  C      606.032    -226.205    -591.650
  O      607.191    -227.011    -591.782
  O      606.368    -228.610    -589.890
  O      608.479    -229.086    -591.234
  H      607.950    -229.908    -591.328
  H      605.905    -225.615    -592.534
  H      606.141    -225.560    -590.803
  H      605.175    -226.832    -591.514

 6  7  8  9  10  11  12  13  14  15  16  26  30  31  32  33  35 0
 6-311+G(2d,p)
 ****
 37  38 0
 6-311+G(2d,p)
 ****
 1  2  3  4  5  17  18  19  20  21  22  23  24  25 0
 3-21G
 ****
 27  28  29  34  36  39  40  41  42  43  44  45  46 0
 3-21G
 ****


