%nproc=1
%NoSave
%Mem=1900MB
#P OB98/GEN NMR

erre ene a

0 1
  C     -108.669     108.645      23.967
  O     -107.466     109.299      23.617
  H     -108.603     108.328      25.010
  H     -108.820     107.763      23.338
  H     -109.513     109.331      23.858
  P     -107.344     109.815      22.103
  C     -107.331     108.640      19.809
  O     -107.392     108.472      21.221
  C     -106.106     107.925      19.239
  O     -104.918     108.650      19.645
  C     -105.961     106.482      19.729
  O     -105.476     105.670      18.662
  C     -104.904     106.580      20.815
  O     -104.207     105.352      21.009
  C     -104.034     107.725      20.299
  N     -100.605     107.031      24.011
  C     -101.019     106.234      23.004
  N     -101.930     106.505      22.044
  C     -102.391     107.762      22.170
  C     -102.065     108.688      23.144
  C     -101.127     108.277      24.108
  N     -100.718     109.073      25.152
  N     -102.782     109.854      22.963
  C     -103.517     109.641      21.887
  N     -103.327     108.383      21.384
  O     -106.197     110.725      21.819
  O     -108.795     110.442      21.856
  H     -104.851     104.677      21.307
  H     -109.498     109.864      22.207
  H     -100.566     105.247      22.965
  H     -104.208     110.352      21.448
  H     -103.281     107.388      19.576
  H     -105.377     106.853      21.767
  H     -106.897     106.073      20.110
  H     -106.149     107.971      18.145
  H     -107.283     109.705      19.558
  H     -100.030     108.704      25.790
  H     -101.083     110.011      25.231
  H     -108.248     108.223      19.381
  P     -106.527     104.777      17.844
  C     -107.895     102.625      18.231
  O     -106.809     103.432      18.672
  O     -106.233     104.589      16.394
  O     -107.897     105.589      18.044
  H     -108.415     105.543      17.218
  H     -107.978     101.764      18.861
  H     -107.721     102.314      17.222
  H     -108.802     103.191      18.279

 6  7  8  9  10  11  12  13  14  15  25  28  32  33  34  35 0
 6-311+G(2d,p)
 ****
 36  39  40 0
 6-311+G(2d,p)
 ****
 1  2  3  4  5  16  17  18  19  20  21  22  23  24 0
 3-21G
 ****
 26  27  29  30  31  37  38  41  42  43  44  45  46  47 0
 3-21G
 ****
 48 0
 3-21G
 ****


