%nproc=1
%NoSave
%Mem=1900MB
#P OB98/GEN NMR

erre ene a

0 1
  C     -289.913      24.427     172.463
  O     -289.863      23.017     172.440
  H     -288.906      24.817     172.292
  H     -290.258      24.773     173.441
  H     -290.576      24.803     171.680
  P     -291.258      22.228     172.515
  C     -290.655      20.649     170.544
  O     -290.988      20.760     171.919
  C     -289.811      19.397     170.300
  O     -288.457      19.649     170.758
  C     -290.330      18.155     171.028
  O     -290.150      17.018     170.179
  C     -289.416      18.035     172.233
  O     -289.328      16.700     172.728
  C     -288.100      18.604     171.682
  N     -287.239      19.095     172.752
  C     -286.552      18.133     173.497
  O     -286.695      16.936     173.245
  N     -285.768      18.542     174.545
  C     -285.739      19.795     174.876
  N     -284.966      20.134     175.943
  C     -286.502      20.837     174.161
  C     -287.217      20.422     173.116
  O     -292.141      22.926     171.379
  O     -291.930      22.241     173.847
  H     -288.531      16.635     173.298
  H     -293.088      22.923     171.615
  H     -286.467      21.865     174.490
  H     -287.814      21.114     172.534
  H     -287.557      17.834     171.116
  H     -289.792      18.671     173.043
  H     -291.383      18.232     171.315
  H     -289.755      19.222     169.219
  H     -284.473      19.388     176.418
  H     -290.078      21.530     170.246
  H     -284.905      21.069     176.315
  H     -291.574      20.612     169.949
  P     -290.985      15.702     170.550
  C     -292.095      15.486     168.211
  O     -291.263      14.888     169.197
  O     -292.424      16.277     170.950
  O     -290.382      14.902     171.658
  H     -292.557      16.199     171.913
  H     -292.185      14.827     167.373
  H     -291.662      16.411     167.892
  H     -293.064      15.670     168.626

 6  7  8  9  10  11  12  13  14  15  16  26  30  31  32  33  35 0
 6-311+G(2d,p)
 ****
 37  38 0
 6-311+G(2d,p)
 ****
 1  2  3  4  5  17  18  19  20  21  22  23  24  25 0
 3-21G
 ****
 27  28  29  34  36  39  40  41  42  43  44  45  46 0
 3-21G
 ****


