%nproc=1
%NoSave
%Mem=1900MB
#P OB98/GEN NMR

erre ene a

0 1
  C     1317.802    -195.476    -231.449
  O     1316.401    -195.561    -231.214
  P     1315.484    -194.364    -231.786
  C     1313.695    -195.536    -230.305
  O     1314.204    -194.317    -230.806
  C     1312.547    -195.286    -229.317
  O     1313.053    -194.637    -228.140
  C     1311.457    -194.372    -229.864
  O     1310.545    -195.068    -230.701
  C     1310.787    -193.923    -228.561
  O     1309.847    -194.935    -228.131
  C     1311.973    -193.825    -227.596
  N     1311.687    -189.668    -224.709
  C     1311.035    -190.883    -224.578
  N     1310.211    -191.025    -223.513
  N     1311.183    -191.886    -225.423
  C     1312.064    -191.620    -226.406
  C     1312.778    -190.450    -226.645
  C     1312.563    -189.346    -225.732
  O     1313.059    -188.233    -225.833
  N     1313.578    -190.574    -227.751
  C     1313.405    -191.813    -228.164
  N     1312.462    -192.479    -227.392
  O     1314.882    -194.990    -233.137
  O     1316.196    -193.086    -232.034
  H     1309.292    -195.145    -228.908
  H     1314.642    -194.275    -233.754
  H     1311.554    -188.945    -224.021
  H     1313.919    -192.267    -228.989
  H     1311.717    -194.259    -226.620
  H     1310.226    -193.009    -228.682
  H     1310.167    -190.352    -222.759
  H     1311.884    -193.494    -230.367
  H     1309.755    -191.915    -223.378
  H     1312.123    -196.255    -229.017
  H     1314.488    -196.079    -229.770
  H     1313.356    -196.154    -231.133
  P     1310.079    -194.311    -232.046
  C     1307.621    -194.931    -231.482
  O     1308.549    -193.913    -231.791
  O     1310.003    -195.499    -233.113
  O     1310.988    -193.206    -232.475
  H     1310.126    -195.136    -234.027
  H     1308.076    -195.710    -230.859
  H     1307.262    -195.380    -232.413
  H     1306.780    -194.486    -230.933
  H     1318.288    -196.327    -231.020
  H     1318.185    -194.583    -231.001
  H     1317.986    -195.454    -232.503

 3  4  5  6  7  8  9  10  11  12  23  26  30  31  33  0
 6-311+G(2d,p)
 ****
 35  36  37  38 0
 6-311+G(2d,p)
 ****
 1  2  13  14  15  16  17  18  19  20  21  22  24  25  27  28  29 0
 3-21G
 ****
 32  34  39  40  41  42  43  44  45  46  47  48  49 0
 3-21G
 ****


