%nproc=1
%NoSave
%Mem=1900MB
#P OB98/GEN NMR

erre ene a

0 1
  C     -458.870      41.991     -99.116
  O     -458.358      40.874     -98.418
  H     -459.511      42.575     -98.452
  H     -458.033      42.619     -99.438
  H     -459.433      41.675     -99.997
  P     -459.374      39.669     -98.114
  C     -457.706      37.709     -98.461
  O     -458.483      38.459     -97.537
  C     -457.286      36.374     -97.844
  O     -456.555      36.644     -96.614
  C     -458.460      35.441     -97.500
  O     -458.069      34.095     -97.795
  C     -458.595      35.593     -95.992
  O     -459.189      34.455     -95.374
  C     -457.140      35.823     -95.585
  N     -457.421      34.983     -90.574
  C     -457.259      34.150     -91.624
  N     -457.139      34.461     -92.930
  C     -457.135      35.795     -93.099
  C     -457.286      36.775     -92.131
  C     -457.452      36.319     -90.810
  N     -457.690      37.162     -89.744
  N     -457.286      38.031     -92.708
  C     -457.160      37.809     -94.003
  N     -457.069      36.475     -94.288
  O     -459.769      39.175     -99.586
  O     -460.577      40.027     -97.305
  H     -459.149      34.566     -94.403
  H     -460.530      39.691     -99.912
  H     -457.230      33.086     -91.380
  H     -457.164      38.575     -94.771
  H     -456.568      34.890     -95.518
  H     -459.212      36.471     -95.766
  H     -459.390      35.682     -98.026
  H     -456.588      35.878     -98.530
  H     -456.805      38.279     -98.717
  H     -457.905      36.741     -88.855
  H     -457.823      38.145     -89.918
  H     -458.290      37.539     -99.370
  P     -458.767      33.385     -99.056
  C     -456.747      31.740     -98.965
  O     -458.134      31.924     -99.232
  O     -458.176      34.199    -100.304
  O     -460.261      33.427     -99.024
  H     -458.839      34.243    -101.018
  H     -456.485      30.716     -99.129
  H     -456.542      32.003     -97.948
  H     -456.172      32.364     -99.618

 6  7  8  9  10  11  12  13  14  15  25  28  32  33  34  35 0
 6-311+G(2d,p)
 ****
 36  39  40 0
 6-311+G(2d,p)
 ****
 1  2  3  4  5  16  17  18  19  20  21  22  23  24 0
 3-21G
 ****
 26  27  29  30  31  37  38  41  42  43  44  45  46  47 0
 3-21G
 ****
 48 0
 3-21G
 ****


