%nproc=1
%NoSave
%Mem=1900MB
#P OB98/GEN NMR

erre ene a

0 1
  C      472.991    -638.233     477.005
  O      472.624    -638.950     478.162
  P      472.110    -638.159     479.469
  C      472.187    -640.241     481.001
  O      472.688    -638.920     480.760
  C      473.332    -641.205     481.296
  O      474.282    -641.208     480.206
  C      474.134    -640.844     482.533
  O      473.435    -641.123     483.724
  C      475.390    -641.686     482.309
  O      475.168    -643.050     482.710
  C      475.562    -641.597     480.779
  N      476.625    -640.673     480.393
  C      477.851    -641.250     480.072
  O      478.023    -642.473     480.199
  N      478.862    -640.443     479.617
  C      478.686    -639.148     479.598
  N      479.700    -638.384     479.093
  C      477.464    -638.490     480.093
  C      476.463    -639.298     480.449
  O      470.645    -637.873     479.512
  O      472.959    -636.799     479.455
  H      472.340    -636.048     479.569
  H      475.027    -643.028     483.695
  H      477.402    -637.413     480.136
  H      475.521    -638.921     480.792
  H      475.785    -642.592     480.357
  H      476.251    -641.318     482.878
  H      474.411    -639.779     482.499
  H      472.911    -642.209     481.395
  H      480.532    -638.871     478.756
  H      471.647    -640.566     480.115
  H      479.557    -637.449     478.734
  H      471.478    -640.205     481.839
  P      473.813    -640.227     485.003
  C      472.751    -641.953     486.614
  O      473.903    -641.206     486.265
  O      472.471    -639.389     485.269
  O      474.992    -639.323     484.805
  H      472.702    -638.471     485.569
  H      473.059    -642.803     487.233
  H      472.261    -642.351     485.720
  H      472.054    -641.345     487.175
  H      473.304    -638.918     476.245
  H      473.796    -637.567     477.238
  H      472.152    -637.669     476.654

 3  4  5  6  7  8  9  10  11  12  13  24  27  28  29  30  32 0
 6-311+G(2d,p)
 ****
 34  35 0
 6-311+G(2d,p)
 ****
 1  2  14  15  16  17  18  19  20  21  22  23  25  26 0
 3-21G
 ****
 31  33  36  37  38  39  40  41  42  43  44  45  46 0
 3-21G
 ****


