%nproc=1
%NoSave
%Mem=1900MB
#P OB98/GEN NMR

erre ene a

0 1
  C      414.428     360.978     613.147
  O      413.674     361.792     612.269
  H      414.198     361.265     614.177
  H      415.499     361.123     612.974
  H      414.174     359.919     613.017
  P      413.709     361.470     610.699
  C      414.669     363.836     610.308
  O      414.806     362.441     610.048
  C      416.041     364.437     610.621
  O      416.719     363.635     611.620
  C      416.981     364.502     609.424
  O      416.636     365.557     608.554
  C      418.325     364.655     610.124
  O      418.546     366.020     610.506
  C      418.141     363.754     611.364
  N      418.757     362.431     611.204
  C      420.142     362.414     611.051
  O      420.832     363.431     611.006
  N      420.704     361.176     610.909
  C      420.028     359.995     610.798
  O      420.577     358.914     610.586
  C      418.569     360.077     610.947
  C      418.012     361.274     611.142
  O      412.380     361.461     610.010
  O      414.414     360.032     610.623
  H      419.488     366.091     610.748
  H      413.741     359.347     610.436
  H      421.704     361.138     610.777
  H      417.996     359.159     610.882
  H      416.933     361.359     611.250
  H      418.579     364.229     612.253
  H      419.155     364.361     609.483
  H      416.969     363.541     608.886
  H      415.885     365.442     611.045
  H      414.002     363.972     611.165
  H      414.227     364.321     609.426
  P      416.536     365.300     606.978
  C      418.375     367.035     606.520
  O      417.946     365.685     606.323
  O      415.344     365.894     606.310
  O      416.514     363.704     606.857
  H      415.673     363.419     606.432
  H      419.322     367.181     606.044
  H      418.469     367.230     607.568
  H      417.655     367.703     606.096

 6  7  8  9  10  11  12  13  14  15  16  26  31  32  33  34  35 0
 6-311+G(2d,p)
 ****
 36  37 0
 6-311+G(2d,p)
 ****
 1  2  3  4  5  17  18  19  20  21  22  23  24  25 0
 3-21G
 ****
 27  28  29  30  38  39  40  41  42  43  44  45 0
 3-21G
 ****


