%nproc=1
%NoSave
%Mem=1900MB
#P OB98/GEN NMR

erre ene a

0 1
  C      -48.150      41.924      13.593
  O      -48.109      42.671      14.805
  P      -47.891      41.859      16.169
  C      -50.313      40.867      16.332
  O      -48.926      40.635      16.181
  C      -50.907      39.967      17.431
  O      -52.295      40.341      17.631
  C      -50.932      38.477      17.110
  O      -51.095      37.749      18.329
  C      -52.194      38.361      16.282
  O      -52.653      37.015      16.208
  C      -53.143      39.358      16.984
  N      -54.086      40.027      16.062
  C      -55.452      39.901      16.305
  O      -55.926      39.263      17.242
  N      -56.282      40.508      15.402
  C      -55.893      41.247      14.327
  O      -56.677      41.695      13.501
  C      -54.447      41.465      14.198
  C      -53.624      40.848      15.048
  O      -48.445      42.854      17.290
  O      -46.473      41.469      16.415
  H      -51.886      36.474      15.910
  H      -47.704      43.255      17.781
  H      -57.274      40.368      15.527
  H      -54.101      42.103      13.394
  H      -52.549      40.984      14.953
  H      -53.743      38.855      17.753
  H      -51.994      38.693      15.258
  H      -50.054      38.112      16.571
  H      -50.377      40.151      18.372
  H      -50.825      40.694      15.382
  H      -50.484      41.918      16.593
  P      -50.100      36.524      18.612
  C      -51.397      34.787      17.233
  O      -50.211      35.550      17.343
  O      -50.232      35.868      19.945
  O      -48.653      37.188      18.416
  H      -47.977      36.633      18.846
  H      -51.596      34.599      16.175
  H      -52.253      35.309      17.669
  H      -51.257      33.831      17.744
  H      -48.300      42.590      12.769
  H      -48.955      41.221      13.635
  H      -47.226      41.401      13.465

 3  4  5  6  7  8  9  10  11  12  13  23  28  29  30  31  32 0
 6-311+G(2d,p)
 ****
 33  34 0
 6-311+G(2d,p)
 ****
 1  2  14  15  16  17  18  19  20  21  22  24  25  26  27 0
 3-21G
 ****
 35  36  37  38  39  40  41  42  43  44  45 0
 3-21G
 ****


