%nproc=1
%NoSave
%Mem=1900MB
#P OB98/GEN NMR

erre ene a

0 1
  C      -96.701      70.399     488.228
  O      -95.480      69.838     488.669
  H      -96.599      70.678     487.175
  H      -96.945      71.296     488.804
  H      -97.510      69.666     488.318
  P      -95.330      69.448     490.215
  C      -94.957      70.747     492.424
  O      -95.168      70.827     491.020
  C      -95.114      72.128     493.080
  O      -93.932      72.926     492.791
  C      -96.338      72.915     492.573
  O      -96.777      73.763     493.647
  C      -95.720      73.747     491.464
  O      -96.569      74.795     491.064
  C      -94.380      74.127     492.112
  N      -93.404      74.613     491.152
  C      -93.799      75.682     490.347
  O      -94.931      76.154     490.462
  N      -92.920      76.164     489.406
  C      -91.774      75.581     489.247
  N      -90.951      76.101     488.281
  C      -91.333      74.413     490.032
  C      -92.185      73.986     490.959
  O      -94.295      68.415     490.533
  O      -96.795      68.955     490.634
  H      -96.125      75.368     490.391
  H      -96.804      67.982     490.712
  H      -90.378      73.953     489.837
  H      -91.951      73.131     491.590
  H      -94.524      74.896     492.885
  H      -95.544      73.135     490.573
  H      -97.154      72.278     492.241
  H      -95.149      71.994     494.165
  H      -91.300      76.900     487.761
  H      -93.939      70.374     492.586
  H      -90.042      75.726     488.053
  H      -95.669      70.040     492.872
  P      -98.197      73.575     494.367
  C     -100.708      73.590     493.752
  O      -99.372      73.720     493.281
  O      -98.384      74.446     495.579
  O      -98.260      72.032     494.781
  H      -98.797      71.937     495.600
  H     -101.388      73.707     492.934
  H     -100.902      74.343     494.487
  H     -100.839      72.622     494.190

 6  7  8  9  10  11  12  13  14  15  16  26  30  31  32  33  35 0
 6-311+G(2d,p)
 ****
 37  38 0
 6-311+G(2d,p)
 ****
 1  2  3  4  5  17  18  19  20  21  22  23  24  25 0
 3-21G
 ****
 27  28  29  34  36  39  40  41  42  43  44  45  46 0
 3-21G
 ****


