%nproc=1
%NoSave
%Mem=1900MB
#P OB98/GEN NMR

erre ene a

0 1
  C       44.010    -168.871     148.285
  O       43.659    -168.345     147.016
  P       42.469    -169.000     146.163
  C       43.338    -171.418     146.085
  O       43.111    -170.223     145.346
  C       43.520    -172.609     145.145
  O       43.922    -173.761     145.923
  C       42.250    -172.984     144.391
  O       42.605    -173.425     143.076
  C       41.696    -174.173     145.157
  O       40.889    -175.009     144.311
  C       42.982    -174.825     145.676
  N       41.865    -179.384     147.754
  C       42.027    -178.998     146.471
  N       42.298    -177.766     145.988
  C       42.456    -176.891     146.995
  C       42.323    -177.138     148.354
  C       42.009    -178.454     148.727
  N       41.856    -178.848     150.040
  N       42.529    -175.980     149.083
  C       42.798    -175.062     148.181
  N       42.777    -175.565     146.905
  O       41.689    -168.041     145.330
  O       41.550    -169.731     147.247
  H       41.478    -175.369     143.615
  H       40.607    -169.634     147.013
  H       41.922    -179.787     145.728
  H       43.003    -174.025     148.394
  H       43.421    -175.500     144.932
  H       41.064    -173.815     145.980
  H       41.531    -172.160     144.326
  H       44.336    -172.382     144.448
  H       42.470    -171.596     146.727
  H       41.752    -179.833     150.219
  H       42.133    -178.200     150.767
  H       44.221    -171.290     146.722
  P       42.195    -172.442     141.870
  C       39.722    -172.756     142.622
  O       40.659    -172.782     141.568
  O       43.150    -172.529     140.725
  O       42.175    -171.024     142.617
  H       42.010    -171.130     143.582
  H       38.746    -173.054     142.230
  H       39.640    -171.745     143.028
  H       40.015    -173.454     143.413
  H       44.820    -168.304     148.694
  H       44.308    -169.893     148.177
  H       43.167    -168.813     148.941

 3  4  5  6  7  8  9  10  11  12  22  25  29  30  31  32 0
 6-311+G(2d,p)
 ****
 33  36  37 0
 6-311+G(2d,p)
 ****
 1  2  13  14  15  16  17  18  19  20  21  23  24  26 0
 3-21G
 ****
 27  28  34  35  38  39  40  41  42  43  44  45  46  47  48 0
 3-21G
 ****


