%nproc=1
%NoSave
%Mem=1900MB
#P OB98/GEN NMR

erre ene a

0 1
  C     -192.754     301.207    -709.153
  O     -193.583     301.301    -707.995
  P     -195.159     301.077    -708.174
  C     -195.669     298.983    -706.630
  O     -195.757     300.375    -706.870
  C     -195.924     298.713    -705.134
  O     -194.728     298.969    -704.365
  C     -197.039     299.587    -704.542
  O     -198.315     299.018    -704.737
  C     -196.616     299.676    -703.085
  O     -196.968     298.462    -702.392
  C     -195.072     299.793    -703.217
  N     -194.506     301.146    -703.420
  C     -194.165     301.930    -702.312
  O     -194.322     301.575    -701.149
  N     -193.624     303.157    -702.600
  C     -193.229     303.607    -703.817
  O     -192.692     304.694    -704.009
  C     -193.463     302.681    -704.928
  C     -194.092     301.522    -704.694
  O     -195.256     299.938    -709.297
  O     -195.926     302.309    -708.556
  H     -196.415     298.414    -701.594
  H     -195.688     300.291    -710.103
  H     -193.444     303.760    -701.814
  H     -193.122     302.976    -705.920
  H     -194.269     300.832    -705.514
  H     -194.576     299.368    -702.341
  H     -197.137     300.481    -702.574
  H     -196.990     300.596    -704.968
  H     -196.185     297.650    -705.012
  H     -194.683     298.599    -706.916
  H     -196.407     298.457    -707.240
  P     -199.630     299.852    -704.353
  C     -200.274     299.967    -706.837
  O     -200.680     299.573    -705.531
  O     -199.412     301.290    -704.002
  O     -200.256     299.025    -703.125
  H     -199.976     299.417    -702.263
  H     -201.003     299.584    -707.560
  H     -199.288     299.560    -707.075
  H     -200.252     301.053    -706.910
  H     -191.735     301.379    -708.877
  H     -193.058     301.941    -709.870
  H     -192.848     300.231    -709.580

 3  4  5  6  7  8  9  10  11  12  13  23  28  29  30  31  32 0
 6-311+G(2d,p)
 ****
 33  34 0
 6-311+G(2d,p)
 ****
 1  2  14  15  16  17  18  19  20  21  22  24  25  26  27 0
 3-21G
 ****
 35  36  37  38  39  40  41  42  43  44  45 0
 3-21G
 ****


