%nproc=1
%NoSave
%Mem=1900MB
#P OB98/GEN NMR

erre ene a

0 1
  C       64.648      29.253      50.663
  O       65.174      28.047      50.115
  P       64.302      26.915      49.405
  C       64.349      27.552      46.863
  O       63.640      27.546      48.093
  C       63.892      26.447      45.897
  O       62.589      26.787      45.355
  C       64.844      26.347      44.705
  O       66.039      25.598      44.810
  C       63.958      25.939      43.537
  O       63.934      24.525      43.334
  C       62.573      26.442      43.954
  N       60.936      28.144      39.417
  C       61.373      26.884      39.770
  N       61.430      25.967      38.780
  N       61.738      26.556      40.980
  C       61.716      27.588      41.852
  C       61.322      28.885      41.617
  C       60.864      29.224      40.287
  O       60.456      30.323      39.924
  N       61.455      29.662      42.740
  C       61.952      28.843      43.644
  N       62.121      27.568      43.155
  O       63.406      26.132      50.304
  O       65.413      25.902      48.821
  H       63.245      24.328      42.675
  H       65.019      25.007      48.856
  H       60.643      28.336      38.475
  H       62.199      29.118      44.663
  H       61.816      25.657      43.837
  H       64.325      26.380      42.602
  H       61.278      26.187      37.809
  H       65.176      27.368      44.475
  H       61.952      25.113      38.984
  H       63.758      25.500      46.425
  H       65.408      27.432      47.107
  H       64.251      28.526      46.380
  P       67.509      26.097      44.419
  C       68.238      26.534      46.835
  O       68.008      27.102      45.558
  O       67.266      27.073      43.174
  O       68.471      25.012      44.065
  H       68.102      27.229      42.696
  H       68.268      27.333      47.580
  H       69.199      26.011      46.836
  H       67.441      25.832      47.099
  H       65.445      29.834      51.077
  H       63.942      29.017      51.431
  H       64.162      29.813      49.892

 3  4  5  6  7  8  9  10  11  12  23  26  30  31 0
 6-311+G(2d,p)
 ****
 33  35  36  37  38 0
 6-311+G(2d,p)
 ****
 1  2  13  14  15  16  17  18  19  20  21  22  24  25 0
 3-21G
 ****
 27  28  29  32  34  39  40  41  42  43  44  45  46  47  48  49 0
 3-21G
 ****


