%nproc=1
%NoSave
%Mem=1900MB
#P OB98/GEN NMR

erre ene a

0 1
  C      -58.044     251.912     112.999
  O      -59.043     251.935     114.010
  P      -58.718     252.746     115.358
  C      -59.445     255.106     114.556
  O      -58.367     254.240     114.888
  C      -59.349     256.409     115.345
  O      -59.746     256.191     116.713
  C      -57.952     257.007     115.413
  O      -57.631     257.750     114.247
  C      -58.092     257.931     116.610
  O      -58.763     259.143     116.217
  C      -58.989     257.110     117.544
  N      -58.855     255.630     122.436
  C      -59.699     256.443     121.766
  N      -59.661     256.797     120.463
  C      -58.597     256.252     119.853
  C      -57.632     255.434     120.418
  C      -57.792     255.112     121.774
  N      -56.949     254.260     122.451
  N      -56.693     255.071     119.477
  C      -57.088     255.649     118.362
  N      -58.239     256.364     118.535
  O      -57.298     252.155     115.800
  O      -59.741     252.619     116.434
  H      -58.116     259.674     115.715
  H      -57.165     252.287     116.759
  H      -60.518     256.856     122.348
  H      -56.579     255.571     117.411
  H      -59.712     257.734     118.079
  H      -57.128     258.223     117.036
  H      -57.200     256.237     115.627
  H      -60.054     257.124     114.901
  H      -60.389     254.611     114.797
  H      -57.235     253.938     123.361
  H      -56.283     253.723     121.907
  H      -59.422     255.310     113.480
  P      -56.078     257.820     113.842
  C      -56.342     255.527     112.649
  O      -55.635     256.301     113.599
  O      -55.361     258.221     115.215
  O      -55.779     258.783     112.741
  H      -54.516     258.676     115.037
  H      -55.737     254.655     112.387
  H      -56.539     256.101     111.740
  H      -57.286     255.184     113.080
  H      -58.394     251.340     112.165
  H      -57.153     251.466     113.388
  H      -57.834     252.912     112.683

 3  4  5  6  7  8  9  10  11  12  22  25  29  30  31  32 0
 6-311+G(2d,p)
 ****
 33  36  37 0
 6-311+G(2d,p)
 ****
 1  2  13  14  15  16  17  18  19  20  21  23  24  26 0
 3-21G
 ****
 27  28  34  35  38  39  40  41  42  43  44  45  46  47  48 0
 3-21G
 ****


