%nproc=1
%NoSave
%Mem=1900MB
#P OB98/GEN NMR

erre ene a

0 1
  C       28.104     -79.417      49.963
  O       27.960     -78.648      48.785
  H       28.460     -80.415      49.686
  H       27.138     -79.522      50.466
  H       28.832     -78.962      50.639
  P       27.542     -77.105      48.916
  C       25.617     -75.810      50.025
  O       26.083     -77.078      49.586
  C       24.091     -75.798      50.109
  O       23.550     -75.605      48.775
  C       23.495     -77.092      50.678
  O       22.371     -76.755      51.489
  C       23.024     -77.835      49.440
  O       21.950     -78.730      49.722
  C       22.632     -76.685      48.512
  N       20.698     -79.821      45.052
  C       20.347     -79.626      46.374
  N       19.348     -80.396      46.860
  N       20.927     -78.751      47.155
  C       21.900     -78.040      46.536
  C       22.339     -78.140      45.237
  C       21.700     -79.121      44.385
  O       21.974     -79.347      43.213
  N       23.366     -77.259      44.990
  C       23.548     -76.633      46.139
  N       22.690     -77.079      47.113
  O       27.661     -76.299      47.661
  O       28.490     -76.543      50.076
  H       21.652     -79.101      48.862
  H       29.243     -76.052      49.699
  H       20.223     -80.514      44.498
  H       24.284     -75.861      46.323
  H       21.611     -76.328      48.699
  H       23.856     -78.414      49.018
  H       18.845     -81.078      46.312
  H       24.216     -77.675      51.259
  H       19.058     -80.255      47.821
  H       23.782     -74.930      50.704
  H       25.953     -75.053      49.305
  H       26.050     -75.583      51.006
  P       22.515     -76.848      53.084
  C       23.577     -78.444      54.808
  O       23.221     -78.244      53.444
  O       21.279     -76.540      53.864
  O       23.677     -75.785      53.398
  H       23.532     -75.411      54.290
  H       24.036     -79.404      54.920
  H       22.698     -78.396      55.417
  H       24.264     -77.682      55.113

 6  7  8  9  10  11  12  13  14  15  26  29  33  34 0
 6-311+G(2d,p)
 ****
 36  38  39  40  41 0
 6-311+G(2d,p)
 ****
 1  2  3  4  5  16  17  18  19  20  21  22  23  24  25 0
 3-21G
 ****
 27  28  30  31  32  35  37  42  43  44  45  46  47 0
 3-21G
 ****
 48  49 0
 3-21G
 ****


