%nproc=1
%NoSave
%Mem=1900MB
#P OB98/GEN NMR

erre ene a

0 1
  C      512.434    1004.252     510.873
  O      512.992    1005.521     511.190
  H      513.172    1003.478     511.093
  H      512.185    1004.212     509.813
  H      511.534    1004.067     511.475
  P      511.999    1006.780     511.121
  C      512.825    1007.696     508.804
  O      512.757    1007.871     510.211
  C      513.866    1008.640     508.202
  O      513.292    1009.967     508.066
  C      515.139    1008.788     509.067
  O      516.265    1008.895     508.186
  C      514.930    1010.100     509.804
  O      516.158    1010.683     510.215
  C      514.110    1010.907     508.776
  N      513.329    1011.977     509.395
  C      514.029    1013.075     509.885
  O      515.255    1013.106     509.803
  N      513.325    1014.084     510.496
  C      512.049    1013.977     510.658
  N      511.415    1015.010     511.278
  C      511.275    1012.807     510.197
  C      511.957    1011.853     509.557
  O      512.124    1007.372     512.596
  O      510.601    1006.443     510.696
  H      515.974    1011.617     510.487
  H      513.028    1007.366     512.953
  H      510.201    1012.748     510.359
  H      511.482    1010.969     509.201
  H      514.802    1011.373     508.031
  H      514.314    1009.917     510.696
  H      515.295    1007.957     509.746
  H      514.118    1008.304     507.186
  H      511.980    1015.780     511.597
  H      511.853    1007.907     508.346
  H      510.430    1015.005     511.502
  H      513.094    1006.660     508.598
  P      516.604    1007.697     507.195
  C      518.644    1006.660     508.396
  O      518.181    1007.382     507.261
  O      516.039    1007.812     505.814
  O      515.980    1006.412     507.961
  H      515.579    1005.824     507.274
  H      519.702    1006.516     508.320
  H      518.157    1005.708     508.436
  H      518.422    1007.212     509.285

 6  7  8  9  10  11  12  13  14  15  16  26  30  31  32  33  35 0
 6-311+G(2d,p)
 ****
 37  38 0
 6-311+G(2d,p)
 ****
 1  2  3  4  5  17  18  19  20  21  22  23  24  25 0
 3-21G
 ****
 27  28  29  34  36  39  40  41  42  43  44  45  46 0
 3-21G
 ****


