%nproc=1
%NoSave
%Mem=1900MB
#P OB98/GEN NMR

erre ene a

0 1
  C     -191.862      -2.626    -584.355
  O     -191.770      -3.500    -585.490
  P     -192.547      -3.040    -586.821
  C     -194.788      -3.550    -587.993
  O     -193.941      -3.826    -586.893
  C     -196.264      -3.407    -587.554
  O     -196.777      -4.658    -587.038
  C     -196.473      -2.335    -586.477
  O     -197.754      -1.745    -586.704
  C     -196.536      -3.158    -585.202
  O     -197.182      -2.433    -584.153
  C     -197.268      -4.411    -585.696
  N     -197.095      -5.571    -584.825
  C     -197.943      -5.667    -583.723
  O     -198.744      -4.768    -583.464
  N     -197.826      -6.766    -582.899
  C     -196.917      -7.657    -583.132
  N     -196.859      -8.719    -582.283
  C     -195.961      -7.564    -584.260
  C     -196.113      -6.504    -585.056
  O     -191.670      -3.690    -587.997
  O     -192.637      -1.555    -586.968
  H     -197.498      -3.083    -583.487
  H     -191.463      -3.018    -588.676
  H     -195.208      -8.319    -584.408
  H     -195.468      -6.351    -585.905
  H     -198.357      -4.214    -585.778
  H     -195.525      -3.421    -584.865
  H     -195.701      -1.563    -586.465
  H     -196.857      -3.148    -588.442
  H     -197.527      -8.749    -581.527
  H     -194.725      -4.359    -588.736
  H     -196.187      -9.458    -582.368
  H     -194.441      -2.647    -588.503
  P     -197.856      -0.144    -586.703
  C     -198.330       1.601    -584.871
  O     -198.011       0.251    -585.142
  O     -199.353       0.078    -587.234
  O     -196.868       0.640    -587.496
  H     -199.520       1.038    -587.343
  H     -198.523       1.708    -583.800
  H     -199.223       1.906    -585.422
  H     -197.481       2.243    -585.132
  H     -191.307      -3.041    -583.540
  H     -192.888      -2.518    -584.070
  H     -191.460      -1.668    -584.609

 3  4  5  6  7  8  9  10  11  12  13  21  23  27  28  29  30  32 0
 6-311+G(2d,p)
 ****
 34  35 0
 6-311+G(2d,p)
 ****
 1  2  14  15  16  17  18  19  20  22  24  25  26 0
 3-21G
 ****
 31  33  36  37  38  39  40  41  42  43  44  45  46 0
 3-21G
 ****


