%nproc=1
%NoSave
%Mem=1900MB
#P OB98/GEN NMR

erre ene a

0 1
  C      455.699    -211.829     -88.345
  O      455.266    -210.711     -89.090
  P      455.258    -209.221     -88.528
  C      453.537    -207.639     -87.359
  O      453.833    -208.940     -87.849
  C      452.139    -207.592     -86.730
  O      451.151    -207.704     -87.787
  C      451.910    -208.778     -85.774
  O      451.229    -208.437     -84.573
  C      451.249    -209.815     -86.680
  O      450.535    -210.819     -85.968
  C      450.418    -208.934     -87.606
  N      448.845    -213.019     -90.188
  C      448.760    -212.764     -88.836
  N      448.378    -213.794     -88.053
  N      449.061    -211.605     -88.302
  C      449.542    -210.706     -89.188
  C      449.669    -210.845     -90.555
  C      449.295    -212.115     -91.135
  O      449.462    -212.426     -92.317
  N      450.252    -209.745     -91.125
  C      450.510    -208.952     -90.106
  N      450.128    -209.506     -88.905
  O      455.831    -208.166     -89.420
  O      456.226    -209.354     -87.240
  H      451.152    -211.230     -85.338
  H      456.710    -208.504     -87.157
  H      448.673    -213.956     -90.536
  H      450.997    -207.984     -90.175
  H      449.452    -208.687     -87.162
  H      452.045    -210.323     -87.231
  H      448.281    -214.737     -88.422
  H      452.867    -209.177     -85.423
  H      448.546    -213.712     -87.058
  H      451.994    -206.623     -86.232
  H      453.584    -206.967     -88.223
  H      454.296    -207.315     -86.640
  P      451.314    -209.138     -83.143
  C      449.617    -210.385     -81.679
  O      450.076    -210.149     -82.992
  O      450.960    -207.987     -82.092
  O      452.645    -209.741     -82.818
  H      451.529    -208.077     -81.304
  H      448.978    -211.275     -81.679
  H      449.030    -209.530     -81.333
  H      450.455    -210.556     -80.995
  H      455.607    -212.712     -88.942
  H      455.096    -211.928     -87.467
  H      456.722    -211.694     -88.062

 3  4  5  6  7  8  9  10  11  12  23  26  30  31 0
 6-311+G(2d,p)
 ****
 33  35  36  37  38 0
 6-311+G(2d,p)
 ****
 1  2  13  14  15  16  17  18  19  20  21  22  24  25 0
 3-21G
 ****
 27  28  29  32  34  39  40  41  42  43  44  45  46  47  48  49 0
 3-21G
 ****


