%nproc=1
%NoSave
%Mem=1900MB
#P OB98/GEN NMR

erre ene a

0 1
  C      274.663    -119.401     589.099
  O      274.668    -119.925     590.409
  H      275.597    -118.858     588.937
  H      273.828    -118.718     588.963
  H      274.597    -120.217     588.372
  P      273.327    -120.673     590.888
  C      274.509    -122.366     592.483
  O      273.697    -121.207     592.357
  C      275.518    -122.185     593.613
  O      274.845    -121.813     594.841
  C      276.316    -123.438     593.962
  O      277.368    -123.698     593.041
  C      276.843    -123.042     595.328
  O      277.910    -122.086     595.177
  C      275.588    -122.393     595.949
  N      274.755    -123.342     596.695
  C      275.380    -124.045     597.727
  O      276.574    -123.863     597.986
  N      274.646    -124.974     598.431
  C      273.396    -125.161     598.147
  N      272.732    -126.098     598.875
  C      272.699    -124.431     597.073
  C      273.423    -123.547     596.394
  O      273.324    -122.016     590.016
  O      272.068    -119.872     590.811
  H      277.547    -121.351     594.649
  H      272.611    -122.624     590.341
  H      271.652    -124.635     596.866
  H      272.974    -122.976     595.593
  H      275.864    -121.564     596.616
  H      277.249    -123.879     595.899
  H      275.671    -124.309     594.065
  H      276.169    -121.354     593.344
  H      273.261    -126.623     599.565
  H      275.034    -122.521     591.528
  H      271.803    -126.421     598.635
  H      273.885    -123.237     592.687
  P      277.448    -125.182     592.424
  C      278.710    -124.281     590.345
  O      278.699    -125.206     591.425
  O      276.185    -125.236     591.448
  O      277.419    -126.288     593.432
  H      275.794    -126.138     591.424
  H      279.602    -124.416     589.769
  H      278.681    -123.283     590.730
  H      277.855    -124.448     589.723

 6  7  8  9  10  11  12  13  14  15  16  26  30  31  32  33  35 0
 6-311+G(2d,p)
 ****
 37  38 0
 6-311+G(2d,p)
 ****
 1  2  3  4  5  17  18  19  20  21  22  23  24  25 0
 3-21G
 ****
 27  28  29  34  36  39  40  41  42  43  44  45  46 0
 3-21G
 ****


