%nproc=1
%NoSave
%Mem=1900MB
#P OB98/GEN NMR

erre ene a

0 1
  C      -65.693     -23.908     -10.136
  O      -65.524     -23.425      -8.820
  H      -65.953     -23.072     -10.788
  H      -66.509     -24.635     -10.156
  H      -64.773     -24.370     -10.504
  P      -64.842     -24.414      -7.760
  C      -63.519     -22.530      -6.571
  O      -64.506     -23.543      -6.451
  C      -63.361     -21.784      -5.246
  O      -64.545     -20.973      -5.023
  C      -63.193     -22.706      -4.032
  O      -62.249     -22.119      -3.132
  C      -64.572     -22.708      -3.396
  O      -64.533     -23.007      -2.002
  C      -65.054     -21.298      -3.716
  N      -69.064     -21.009      -0.679
  C      -67.714     -20.983      -0.382
  N      -67.383     -20.871       0.922
  N      -66.773     -21.062      -1.285
  C      -67.252     -21.134      -2.550
  C      -68.560     -21.173      -2.973
  C      -69.592     -21.115      -1.961
  O      -70.802     -21.156      -2.160
  N      -68.637     -21.283      -4.339
  C      -67.379     -21.310      -4.739
  N      -66.504     -21.216      -3.692
  O      -63.404     -24.699      -8.400
  O      -65.584     -25.683      -7.499
  H      -64.272     -23.948      -1.910
  H      -63.328     -25.643      -8.635
  H      -69.747     -20.960       0.057
  H      -67.051     -21.405      -5.764
  H      -64.674     -20.555      -3.005
  H      -65.203     -23.459      -3.887
  H      -68.054     -20.758       1.665
  H      -62.863     -23.711      -4.299
  H      -66.400     -20.812       1.161
  H      -62.515     -21.092      -5.333
  H      -63.826     -21.825      -7.350
  H      -62.565     -22.985      -6.857
  P      -60.761     -22.721      -3.144
  C      -59.665     -20.404      -3.520
  O      -59.743     -21.560      -2.700
  O      -60.457     -22.911      -4.704
  O      -60.624     -24.007      -2.401
  H      -60.467     -23.859      -4.931
  H      -58.953     -19.721      -3.106
  H      -60.625     -19.934      -3.566
  H      -59.358     -20.686      -4.506

 6  7  8  9  10  11  12  13  14  15  26  29  33  34 0
 6-311+G(2d,p)
 ****
 36  38  39  40  41 0
 6-311+G(2d,p)
 ****
 1  2  3  4  5  16  17  18  19  20  21  22  23  24  25 0
 3-21G
 ****
 27  28  30  31  32  35  37  42  43  44  45  46  47 0
 3-21G
 ****
 48  49 0
 3-21G
 ****


