%nproc=1
%NoSave
%Mem=1900MB
#P OB98/GEN NMR

erre ene a

0 1
  C      653.059     379.199     -63.234
  O      652.565     379.106     -61.913
  H      653.388     378.206     -63.554
  H      653.919     379.881     -63.273
  H      652.273     379.542     -63.909
  P      652.066     380.475     -61.240
  C      654.455     380.759     -60.272
  O      653.403     381.338     -61.043
  C      655.789     381.419     -60.604
  O      656.093     381.261     -62.004
  C      655.834     382.922     -60.337
  O      656.117     383.178     -58.965
  C      656.987     383.346     -61.230
  O      658.242     383.073     -60.564
  C      656.828     382.427     -62.454
  N      657.308     385.190     -66.747
  C      658.176     384.938     -65.748
  N      657.966     384.232     -64.610
  C      656.701     383.772     -64.565
  C      655.705     383.961     -65.514
  C      656.051     384.698     -66.656
  N      655.157     384.960     -67.679
  N      654.539     383.336     -65.123
  C      654.846     382.744     -63.984
  N      656.135     383.006     -63.589
  O      651.197     380.319     -60.032
  O      651.366     381.196     -62.488
  H      658.930     383.075     -61.258
  H      651.896     381.065     -63.295
  H      659.173     385.349     -65.879
  H      654.183     382.090     -63.432
  H      657.802     382.076     -62.828
  H      656.976     384.417     -61.456
  H      654.914     383.426     -60.671
  H      656.576     380.897     -60.039
  H      654.518     379.685     -60.469
  H      655.428     385.659     -68.357
  H      654.192     384.705     -67.530
  H      654.209     380.908     -59.215
  P      655.455     384.421     -58.199
  C      657.691     385.687     -58.283
  O      656.320     385.692     -58.647
  O      655.305     384.227     -56.727
  O      654.054     384.644     -58.939
  H      653.475     385.194     -58.389
  H      658.157     386.583     -58.637
  H      658.173     384.838     -58.720
  H      657.777     385.637     -57.218

 6  7  8  9  10  11  12  13  14  15  25  28  32  33  34  35 0
 6-311+G(2d,p)
 ****
 36  39  40 0
 6-311+G(2d,p)
 ****
 1  2  3  4  5  16  17  18  19  20  21  22  23  24 0
 3-21G
 ****
 26  27  29  30  31  37  38  41  42  43  44  45  46  47 0
 3-21G
 ****
 48 0
 3-21G
 ****


