%nproc=1
%NoSave
%Mem=1900MB
#P OB98/GEN NMR

erre ene a

0 1
  C     -198.589     331.302      91.938
  O     -199.831     331.371      92.604
  H     -198.767     331.315      90.859
  H     -198.081     330.367      92.200
  H     -197.951     332.149      92.198
  P     -199.850     331.726      94.165
  C     -199.697     329.334      95.124
  O     -199.033     330.572      94.925
  C     -199.680     328.928      96.602
  O     -198.319     328.644      97.012
  C     -200.172     330.080      97.481
  O     -200.786     329.618      98.684
  C     -198.889     330.821      97.825
  O     -199.001     331.617      98.999
  C     -197.910     329.650      97.956
  N     -193.082     329.425      99.586
  C     -194.238     329.009     100.218
  N     -194.093     328.486     101.455
  N     -195.432     329.119      99.693
  C     -195.435     329.729      98.480
  C     -194.358     330.203      97.763
  C     -193.038     330.047      98.345
  O     -191.981     330.413      97.834
  N     -194.754     330.781      96.583
  C     -196.068     330.661      96.585
  N     -196.532     330.012      97.710
  O     -201.362     331.423      94.606
  O     -199.445     333.124      94.519
  H     -199.333     331.043      99.715
  H     -201.600     331.948      95.392
  H     -192.188     329.308     100.030
  H     -196.730     331.013      95.804
  H     -197.960     329.213      98.960
  H     -198.643     331.489      96.997
  H     -193.229     328.548     101.970
  H     -200.879     330.728      96.949
  H     -194.935     328.453     102.043
  H     -200.256     328.008      96.751
  H     -199.170     328.582      94.524
  H     -200.723     329.389      94.750
  P     -202.345     329.925      98.886
  C     -202.357     330.733     101.382
  O     -202.484     331.062     100.011
  O     -202.901     328.600      99.592
  O     -203.070     330.228      97.614
  H     -203.409     328.065      98.951
  H     -202.479     331.616     101.974
  H     -201.388     330.316     101.560
  H     -203.108     330.018     101.648

 6  7  8  9  10  11  12  13  14  15  26  29  33  34 0
 6-311+G(2d,p)
 ****
 36  38  39  40  41 0
 6-311+G(2d,p)
 ****
 1  2  3  4  5  16  17  18  19  20  21  22  23  24  25 0
 3-21G
 ****
 27  28  30  31  32  35  37  42  43  44  45  46  47 0
 3-21G
 ****
 48  49 0
 3-21G
 ****


