%nproc=1
%NoSave
%Mem=1900MB
#P OB98/GEN NMR

erre ene a

0 1
  C      323.692     -58.953    -293.608
  O      322.375     -58.442    -293.600
  H      323.758     -59.757    -292.872
  H      324.411     -58.173    -293.340
  H      323.936     -59.362    -294.593
  P      322.048     -57.165    -294.518
  C      321.726     -54.648    -293.984
  O      322.151     -55.916    -293.508
  C      320.475     -54.194    -293.235
  O      319.347     -55.047    -293.541
  C      320.588     -54.236    -291.712
  O      321.386     -53.191    -291.180
  C      319.124     -54.101    -291.336
  O      318.704     -52.733    -291.502
  C      318.455     -55.016    -292.394
  N      318.205     -56.366    -291.900
  C      317.136     -56.528    -291.014
  O      316.452     -55.561    -290.677
  N      316.885     -57.776    -290.495
  C      317.647     -58.773    -290.818
  N      317.385     -59.976    -290.239
  C      318.772     -58.657    -291.765
  C      318.999     -57.441    -292.261
  O      320.791     -57.233    -295.323
  O      323.365     -56.965    -295.408
  H      317.730     -52.732    -291.512
  H      323.206     -56.194    -296.004
  H      319.383     -59.519    -291.993
  H      319.819     -57.270    -292.947
  H      317.508     -54.585    -292.739
  H      318.916     -54.381    -290.301
  H      320.948     -55.212    -291.377
  H      320.223     -53.187    -293.594
  H      316.631     -60.012    -289.563
  H      321.532     -54.733    -295.058
  H      318.078     -60.717    -290.218
  H      322.512     -53.902    -293.826
  P      322.518     -53.580    -290.111
  C      322.376     -53.615    -287.507
  O      321.753     -53.935    -288.741
  O      323.218     -52.178    -289.802
  O      323.495     -54.627    -290.550
  H      324.005     -52.047    -290.368
  H      321.741     -53.914    -286.699
  H      322.545     -52.560    -287.456
  H      323.311     -54.130    -287.435

 6  7  8  9  10  11  12  13  14  15  16  26  30  31  32  33  35 0
 6-311+G(2d,p)
 ****
 37  38 0
 6-311+G(2d,p)
 ****
 1  2  3  4  5  17  18  19  20  21  22  23  24  25 0
 3-21G
 ****
 27  28  29  34  36  39  40  41  42  43  44  45  46 0
 3-21G
 ****


