%nproc=1
%NoSave
%Mem=1900MB
#P OB98/GEN NMR

erre ene a

0 1
  C       69.811     110.038       7.506
  O       69.302     109.492       6.304
  H       70.737     109.520       7.762
  H       69.091     109.900       8.313
  H       70.024     111.104       7.380
  P       67.953     110.155       5.734
  C       65.416     109.696       6.157
  O       66.756     109.216       6.244
  C       64.564     109.105       7.281
  O       64.490     107.659       7.097
  C       65.147     109.340       8.690
  O       64.059     109.411       9.630
  C       65.931     108.059       8.924
  O       66.228     107.908      10.295
  C       64.958     107.055       8.325
  N       64.950     102.122       9.630
  C       64.163     103.159      10.005
  N       64.224     104.445       9.602
  C       65.207     104.605       8.700
  C       66.081     103.648       8.216
  C       65.931     102.346       8.732
  N       66.738     101.297       8.364
  N       66.965     104.211       7.311
  C       66.623     105.477       7.242
  N       65.560     105.767       8.056
  O       68.031     109.850       4.162
  O       67.776     111.606       6.014
  H       65.413     107.838      10.825
  H       68.447     110.600       3.699
  H       63.386     102.918      10.730
  H       67.105     106.236       6.631
  H       64.077     106.878       8.963
  H       66.877     108.071       8.379
  H       65.755     110.249       8.757
  H       63.541     109.492       7.202
  H       65.011     109.405       5.179
  H       65.421     110.790       6.234
  H       66.583     100.400       8.802
  H       67.508     101.452       7.724
  P       64.029     110.612      10.701
  C       64.190     110.928      13.292
  O       64.122     110.026      12.197
  O       62.503     111.097      10.622
  O       64.949     111.757      10.412
  H       62.471     112.069      10.578
  H       64.247     110.375      14.206
  H       63.315     111.544      13.301
  H       65.059     111.544      13.193

 6  7  8  9  10  11  12  13  14  15  25  28  32  33  34  35 0
 6-311+G(2d,p)
 ****
 36  37  40 0
 6-311+G(2d,p)
 ****
 1  2  3  4  5  16  17  18  19  20  21  22  23  24 0
 3-21G
 ****
 26  27  29  30  31  38  39 41  42  43  44  45  46  47  48 0
 3-21G
 ****


