%nproc=1
%NoSave
%Mem=1900MB
#P OB98/GEN NMR

erre ene a

0 1
  C     -157.291    -176.607    -152.217
  O     -156.014    -176.011    -152.221
  H     -157.793    -176.356    -153.158
  H     -157.894    -176.217    -151.394
  H     -157.210    -177.693    -152.143
  P     -155.065    -176.179    -150.936
  C     -154.045    -173.857    -151.330
  O     -153.783    -175.250    -151.233
  C     -152.898    -173.129    -152.034
  O     -151.783    -172.978    -151.113
  C     -152.374    -173.859    -153.280
  O     -152.238    -172.935    -154.361
  C     -150.999    -174.351    -152.853
  O     -150.118    -174.562    -153.952
  C     -150.590    -173.248    -151.872
  N     -149.474    -173.651    -151.029
  C     -148.343    -172.829    -151.069
  O     -148.331    -171.824    -151.781
  N     -147.237    -173.190    -150.344
  C     -147.241    -174.302    -149.677
  N     -146.102    -174.615    -149.003
  C     -148.402    -175.213    -149.630
  C     -149.476    -174.828    -150.319
  O     -154.752    -177.591    -150.572
  O     -155.813    -175.381    -149.768
  H     -149.203    -174.654    -153.604
  H     -155.499    -175.720    -148.897
  H     -148.353    -176.131    -149.063
  H     -150.376    -175.434    -150.346
  H     -150.312    -172.331    -152.407
  H     -151.106    -175.304    -152.318
  H     -153.014    -174.683    -153.595
  H     -153.231    -172.112    -152.280
  H     -145.327    -173.965    -149.069
  H     -154.191    -173.456    -150.320
  H     -145.978    -175.463    -148.471
  H     -154.964    -173.717    -151.909
  P     -152.818    -173.413    -155.779
  C     -151.179    -171.623    -156.700
  O     -152.407    -172.316    -156.876
  O     -154.399    -173.223    -155.615
  O     -152.465    -174.822    -156.121
  H     -154.834    -174.096    -155.574
  H     -151.042    -170.930    -157.504
  H     -150.371    -172.325    -156.693
  H     -151.199    -171.093    -155.771

 6  7  8  9  10  11  12  13  14  15  16  26  30  31  32  33  35 0
 6-311+G(2d,p)
 ****
 37  38 0
 6-311+G(2d,p)
 ****
 1  2  3  4  5  17  18  19  20  21  22  23  24  25 0
 3-21G
 ****
 27  28  29  34  36  39  40  41  42  43  44  45  46 0
 3-21G
 ****


