%nproc=1
%NoSave
%Mem=1900MB
#P OB98/GEN NMR

erre ene a

0 1
  C      286.127    -334.673     -11.239
  O      286.361    -334.861     -12.619
  H      285.089    -334.937     -11.017
  H      286.280    -333.619     -10.986
  H      286.790    -335.299     -10.638
  P      287.889    -334.919     -13.104
  C      289.111    -335.948     -15.150
  O      287.875    -335.524     -14.593
  C      288.874    -336.706     -16.455
  O      288.150    -337.937     -16.156
  C      288.054    -335.925     -17.496
  O      288.557    -336.226     -18.804
  C      286.673    -336.539     -17.366
  O      285.890    -336.370     -18.542
  C      287.037    -337.989     -17.066
  N      283.703    -341.603     -18.079
  C      284.844    -341.221     -18.755
  N      285.114    -341.854     -19.916
  N      285.656    -340.287     -18.329
  C      285.279    -339.746     -17.144
  C      284.174    -340.033     -16.381
  C      283.274    -341.056     -16.870
  O      282.236    -341.424     -16.327
  N      284.116    -339.219     -15.277
  C      285.171    -338.431     -15.386
  N      285.907    -338.711     -16.505
  O      288.490    -336.110     -12.218
  O      288.660    -333.654     -12.935
  H      285.624    -335.430     -18.601
  H      288.915    -335.747     -11.420
  H      283.103    -342.315     -18.458
  H      285.432    -337.637     -14.702
  H      287.352    -338.539     -17.962
  H      286.136    -336.084     -16.524
  H      284.556    -342.605     -20.291
  H      288.055    -334.841     -17.342
  H      285.969    -341.612     -20.400
  H      289.845    -337.000     -16.871
  H      289.616    -336.612     -14.439
  H      289.746    -335.075     -15.326
  P      289.652    -335.242     -19.439
  C      291.332    -335.413     -21.417
  O      290.080    -335.808     -20.875
  O      290.946    -335.515     -18.536
  O      289.260    -333.802     -19.410
  H      291.456    -334.688     -18.432
  H      291.468    -335.873     -22.373
  H      292.118    -335.719     -20.759
  H      291.353    -334.349     -21.527

 6  7  8  9  10  11  12  13  14  15  26  29  33  34 0
 6-311+G(2d,p)
 ****
 36  38  39  40  41 0
 6-311+G(2d,p)
 ****
 1  2  3  4  5  16  17  18  19  20  21  22  23  24  25 0
 3-21G
 ****
 27  28  30  31  32  35  37  42  43  44  45  46  47 0
 3-21G
 ****
 48  49 0
 3-21G
 ****


