%nproc=1
%NoSave
%Mem=1900MB
#P OB98/GEN NMR

erre ene a

0 1
  C     -220.366     140.334     -57.263
  O     -220.957     139.826     -56.079
  H     -221.164     140.657     -57.938
  H     -219.772     139.565     -57.764
  H     -219.738     141.196     -57.025
  P     -220.016     139.033     -55.048
  C     -220.431     136.822     -56.314
  O     -219.462     137.763     -55.865
  C     -219.869     135.405     -56.322
  O     -218.894     135.243     -57.379
  C     -219.129     135.018     -55.050
  O     -219.940     134.920     -53.902
  C     -218.332     133.806     -55.504
  O     -219.104     132.606     -55.485
  C     -217.992     134.192     -56.965
  N     -216.595     134.589     -57.124
  C     -215.650     133.618     -56.828
  O     -215.932     132.487     -56.426
  N     -214.337     134.002     -56.970
  C     -213.900     135.244     -57.329
  O     -212.712     135.526     -57.421
  C     -214.952     136.241     -57.596
  C     -216.230     135.878     -57.485
  O     -220.650     138.679     -53.734
  O     -218.725     139.967     -54.907
  H     -219.843     132.731     -56.104
  H     -218.183     139.714     -54.117
  H     -213.636     133.302     -56.774
  H     -214.637     137.237     -57.870
  H     -217.026     136.592     -57.681
  H     -218.176     133.343     -57.639
  H     -217.448     133.631     -54.881
  H     -218.392     135.804     -54.830
  H     -220.694     134.709     -56.527
  H     -220.721     137.101     -57.336
  H     -221.316     136.874     -55.669
  P     -219.570     135.572     -52.493
  C     -218.731     133.433     -51.237
  O     -218.407     134.696     -51.814
  O     -220.707     136.010     -51.634
  O     -218.762     136.897     -52.945
  H     -218.957     137.591     -52.288
  H     -217.846     132.988     -50.833
  H     -219.141     132.792     -51.989
  H     -219.449     133.571     -50.456

 6  7  8  9  10  11  12  13  14  15  16  26  31  32  33  34  35 0
 6-311+G(2d,p)
 ****
 36  37 0
 6-311+G(2d,p)
 ****
 1  2  3  4  5  17  18  19  20  21  22  23  24  25 0
 3-21G
 ****
 27  28  29  30  38  39  40  41  42  43  44  45 0
 3-21G
 ****


