%nproc=1
%NoSave
%Mem=1900MB
#P OB98/GEN NMR

erre ene a

0 1
  C     -191.845      82.731     119.318
  O     -192.808      81.891     118.707
  P     -194.278      81.825     119.343
  C     -194.030      79.636     120.777
  O     -194.580      80.277     119.640
  C     -194.042      78.117     120.590
  O     -193.301      77.500     121.680
  C     -195.442      77.488     120.574
  O     -195.406      76.392     119.649
  C     -195.598      76.979     121.997
  O     -196.573      75.952     122.109
  C     -194.167      76.526     122.298
  N     -193.878      76.418     123.728
  C     -193.357      75.218     124.201
  O     -193.147      74.235     123.487
  N     -193.108      75.166     125.546
  C     -193.384      76.144     126.457
  O     -193.154      76.037     127.656
  C     -193.975      77.374     125.908
  C     -194.181      77.457     124.591
  O     -195.182      82.161     118.067
  O     -194.471      82.734     120.509
  H     -194.823      81.794     117.241
  H     -197.404      76.281     121.716
  H     -192.694      74.316     125.905
  H     -194.223      78.171     126.602
  H     -194.621      78.351     124.165
  H     -193.966      75.563     121.810
  H     -195.902      77.809     122.649
  H     -196.218      78.199     120.277
  H     -193.506      77.880     119.661
  H     -194.626      79.891     121.660
  H     -193.010      80.003     120.942
  P     -196.388      76.441     118.374
  C     -197.921      74.530     119.300
  O     -197.097      75.012     118.259
  O     -195.307      76.402     117.185
  O     -197.276      77.641     118.312
  H     -194.644      75.703     117.303
  H     -198.558      73.733     118.906
  H     -198.557      75.319     119.703
  H     -197.297      74.119     120.099
  H     -190.922      82.665     118.781
  H     -191.691      82.420     120.330
  H     -192.194      83.742     119.305

 3  4  5  6  7  8  9  10  11  12  13  24  28  29  30  31  32 0
 6-311+G(2d,p)
 ****
 33  34 0
 6-311+G(2d,p)
 ****
 1  2  14  15  16  17  18  19  20  21  22  23  25  26  27 0
 3-21G
 ****
 35  36  37  38  39  40  41  42  43  44  45 0
 3-21G
 ****


