%nproc=1
%NoSave
%Mem=1900MB
#P OB98/GEN NMR

erre ene a

0 1
  C        4.569    -198.644    -213.281
  O        5.765    -198.033    -212.788
  P        5.868    -196.433    -212.880
  C        8.008    -196.174    -214.358
  O        7.428    -196.102    -213.068
  C        9.534    -196.278    -214.266
  O       10.075    -195.055    -213.680
  C       10.040    -197.459    -213.430
  O       11.226    -197.947    -214.073
  C       10.389    -196.813    -212.101
  O       11.317    -197.591    -211.358
  C       10.916    -195.455    -212.578
  N       10.927    -194.451    -211.517
  C       12.019    -194.451    -210.660
  O       12.911    -195.297    -210.714
  N       12.031    -193.472    -209.705
  C       11.037    -192.561    -209.479
  O       11.098    -191.706    -208.607
  C        9.855    -192.682    -210.345
  C        9.855    -193.608    -211.307
  O        5.550    -196.010    -211.373
  O        4.959    -195.850    -213.910
  H        5.916    -196.622    -210.712
  H       11.613    -197.077    -210.580
  H       12.830    -193.434    -209.091
  H        9.022    -192.016    -210.158
  H        8.992    -193.737    -211.947
  H       11.936    -195.557    -212.967
  H        9.483    -196.686    -211.499
  H        9.306    -198.266    -213.344
  H        9.931    -196.349    -215.286
  H        7.749    -195.278    -214.932
  H        7.585    -197.030    -214.897
  P       11.066    -199.081    -215.204
  C       13.328    -200.170    -214.464
  O       12.531    -199.654    -215.505
  O       10.771    -198.160    -216.484
  O        9.988    -200.081    -214.951
  H       11.385    -197.410    -216.563
  H       14.168    -200.716    -214.902
  H       12.760    -200.858    -213.833
  H       13.722    -199.351    -213.857
  H        4.634    -199.705    -213.159
  H        4.451    -198.411    -214.319
  H        3.727    -198.273    -212.734

 3  4  5  6  7  8  9  10  11  12  13  24  28  29  30  31  32 0
 6-311+G(2d,p)
 ****
 33  34 0
 6-311+G(2d,p)
 ****
 1  2  14  15  16  17  18  19  20  21  22  23  25  26  27 0
 3-21G
 ****
 35  36  37  38  39  40  41  42  43  44  45 0
 3-21G
 ****


