%nproc=1
%NoSave
%Mem=1900MB
#P OB98/GEN NMR

erre ene a

0 1
  C     -638.872    -338.041     -23.894
  O     -638.365    -336.773     -24.254
  H     -638.049    -338.671     -23.554
  H     -639.347    -338.522     -24.757
  H     -639.598    -337.940     -23.081
  P     -639.394    -335.724     -24.882
  C     -638.163    -335.708     -27.173
  O     -639.378    -335.946     -26.474
  C     -638.067    -336.668     -28.360
  O     -638.162    -338.032     -27.901
  C     -639.180    -336.495     -29.382
  O     -638.970    -335.398     -30.248
  C     -639.105    -337.828     -30.114
  O     -638.111    -337.817     -31.148
  C     -638.719    -338.808     -28.991
  N     -639.861    -339.614     -28.553
  C     -639.541    -340.893     -28.094
  O     -638.400    -341.332     -28.046
  N     -640.611    -341.668     -27.723
  C     -641.927    -341.321     -27.813
  O     -642.830    -342.098     -27.517
  C     -642.200    -339.965     -28.319
  C     -641.161    -339.192     -28.668
  O     -638.655    -334.318     -24.685
  O     -640.756    -335.732     -24.264
  H     -639.086    -333.819     -23.967
  H     -637.976    -338.748     -31.408
  H     -640.394    -342.598     -27.390
  H     -643.236    -339.660     -28.403
  H     -641.340    -338.193     -29.063
  H     -637.922    -339.480     -29.329
  H     -640.055    -338.068     -30.579
  H     -640.155    -336.428     -28.870
  H     -637.085    -336.531     -28.847
  H     -637.311    -335.892     -26.509
  H     -638.133    -334.667     -27.502
  P     -639.825    -334.062     -29.985
  C     -640.262    -334.088     -32.572
  O     -640.766    -333.870     -31.264
  O     -638.692    -332.949     -30.135
  O     -640.522    -334.077     -28.656
  H     -637.974    -333.239     -30.730
  H     -641.038    -333.910     -33.287
  H     -639.921    -335.099     -32.659
  H     -639.447    -333.420     -32.756

 6  7  8  9  10  11  12  13  14  15  16  27  31  32  33  34  35 0
 6-311+G(2d,p)
 ****
 36  37 0
 6-311+G(2d,p)
 ****
 1  2  3  4  5  17  18  19  20  21  22  23  24  25 0
 3-21G
 ****
 26  28  29  30  38  39  40  41  42  43  44  45 0
 3-21G
 ****


