%nproc=1
%NoSave
%Mem=1900MB
#P OB98/GEN NMR

erre ene a

0 1
  C     -297.224      -6.410     459.419
  O     -297.216      -6.094     460.797
  H     -296.896      -5.533     458.856
  H     -298.232      -6.681     459.092
  H     -296.531      -7.235     459.214
  P     -297.766      -7.183     461.835
  C     -300.007      -8.422     462.205
  O     -299.309      -7.420     461.475
  C     -301.455      -8.551     461.700
  O     -302.177      -7.329     462.025
  C     -301.564      -8.760     460.180
  O     -302.752      -9.532     459.938
  C     -301.748      -7.333     459.696
  O     -302.200      -7.291     458.365
  C     -302.685      -6.790     460.783
  N     -302.741      -5.337     460.801
  C     -303.907      -4.754     460.294
  O     -304.808      -5.463     459.851
  N     -304.005      -3.384     460.270
  C     -302.999      -2.663     460.654
  N     -303.156      -1.307     460.587
  C     -301.724      -3.233     461.139
  C     -301.667      -4.565     461.190
  O     -297.497      -6.903     463.279
  O     -297.070      -8.548     461.367
  H     -301.520      -7.660     457.753
  H     -296.350      -8.780     461.984
  H     -300.910      -2.588     461.423
  H     -300.773      -5.077     461.533
  H     -303.702      -7.176     460.650
  H     -300.796      -6.795     459.715
  H     -300.697      -9.261     459.752
  H     -301.942      -9.362     462.250
  H     -304.041      -0.959     460.237
  H     -300.007      -8.122     463.258
  H     -302.437      -0.648     460.841
  H     -299.495      -9.383     462.107
  P     -302.739     -10.896     459.099
  C     -302.266     -11.632     456.666
  O     -302.629     -10.559     457.534
  O     -303.865     -11.827     459.440
  O     -301.332     -11.583     459.434
  H     -301.432     -12.554     459.391
  H     -302.228     -11.277     455.657
  H     -302.993     -12.414     456.742
  H     -301.305     -12.009     456.948

 6  7  8  9  10  11  12  13  14  15  16  26  30  31  32  33  35 0
 6-311+G(2d,p)
 ****
 37  38 0
 6-311+G(2d,p)
 ****
 1  2  3  4  5  17  18  19  20  21  22  23  24  25 0
 3-21G
 ****
 27  28  29  34  36  39  40  41  42  43  44  45  46 0
 3-21G
 ****


