%nproc=1
%NoSave
%Mem=1900MB
#P OB98/GEN NMR

erre ene a

0 1
  C       19.655     -24.869      -7.765
  O       19.364     -23.488      -7.889
  P       17.881     -22.917      -7.651
  C       17.712     -22.512     -10.201
  O       17.125     -23.102      -9.053
  C       16.649     -21.789     -11.029
  O       15.741     -22.777     -11.584
  C       15.806     -20.781     -10.236
  O       15.503     -19.694     -11.118
  C       14.554     -21.571      -9.909
  O       13.442     -20.737      -9.619
  C       14.406     -22.416     -11.178
  N       13.582     -23.601     -10.969
  C       12.279     -23.584     -11.469
  O       11.836     -22.591     -12.044
  N       11.498     -24.700     -11.305
  C       11.946     -25.710     -10.627
  N       11.156     -26.815     -10.544
  C       13.276     -25.727      -9.989
  C       14.038     -24.661     -10.219
  O       17.824     -21.538      -7.091
  O       17.173     -24.023      -6.744
  H       12.639     -21.292      -9.597
  H       17.351     -23.902      -5.778
  H       13.594     -26.582      -9.409
  H       15.037     -24.597      -9.812
  H       13.984     -21.811     -11.989
  H       14.739     -22.202      -9.033
  H       16.327     -20.397      -9.354
  H       17.146     -21.292     -11.871
  H       10.332     -26.830     -11.136
  H       18.153     -23.306     -10.810
  H       11.550     -27.723     -10.328
  H       18.509     -21.826      -9.897
  P       15.231     -18.247     -10.476
  C       12.703     -18.556     -10.966
  O       13.694     -18.181     -10.035
  O       15.244     -17.309     -11.781
  O       16.241     -17.758      -9.491
  H       15.491     -16.403     -11.517
  H       11.722     -18.455     -10.493
  H       12.836     -19.597     -11.270
  H       12.736     -17.905     -11.844
  H       20.693     -25.034      -7.963
  H       19.066     -25.422      -8.466
  H       19.426     -25.194      -6.772

 3  4  5  6  7  8  9  10  11  12  13  23  27  28  29  30  32 0
 6-311+G(2d,p)
 ****
 34  35 0
 6-311+G(2d,p)
 ****
 1  2  14  15  16  17  18  19  20  21  22  24  25  26 0
 3-21G
 ****
 31  33  36  37  38  39  40  41  42  43  44  45  46 0
 3-21G
 ****


