%nproc=1
%NoSave
%Mem=1900MB
#P OB98/GEN NMR

erre ene a

0 1
  C      556.919     638.675     279.391
  O      555.885     637.871     278.826
  P      554.355     638.252     279.139
  C      552.761     640.214     278.634
  O      554.113     639.769     278.651
  C      552.629     641.522     277.850
  O      553.415     642.579     278.444
  C      553.130     641.407     276.410
  O      552.202     640.697     275.617
  C      553.311     642.881     276.050
  O      552.064     643.469     275.659
  C      553.789     643.486     277.385
  N      555.211     643.781     277.401
  C      555.579     645.121     277.203
  O      554.707     645.974     276.999
  N      556.916     645.447     277.245
  C      557.807     644.526     277.444
  N      559.111     644.912     277.471
  C      557.468     643.095     277.637
  C      556.176     642.801     277.592
  O      553.880     637.934     280.513
  O      553.546     637.404     278.035
  H      551.798     643.046     274.825
  H      552.665     637.183     278.399
  H      558.253     642.360     277.807
  H      555.840     641.770     277.719
  H      553.263     644.432     277.581
  H      553.994     643.008     275.211
  H      554.100     640.904     276.395
  H      551.573     641.822     277.863
  H      559.312     645.890     277.322
  H      552.410     640.367     279.668
  H      559.863     644.278     277.674
  H      552.130     639.429     278.200
  P      552.776     639.576     274.626
  C      554.901     638.268     275.351
  O      553.495     638.466     275.525
  O      554.002     640.322     273.899
  O      551.794     639.052     273.622
  H      554.084     640.001     272.995
  H      555.280     637.729     276.232
  H      555.428     639.211     275.258
  H      555.065     637.642     274.476
  H      557.872     638.293     279.090
  H      556.846     638.652     280.458
  H      556.814     639.683     279.048

 3  4  5  6  7  8  9  10  11  12  13  23  27  28  29  30  32 0
 6-311+G(2d,p)
 ****
 34  35 0
 6-311+G(2d,p)
 ****
 1  2  14  15  16  17  18  19  20  21  22  24  25  26 0
 3-21G
 ****
 31  33  36  37  38  39  40  41  42  43  44  45  46 0
 3-21G
 ****


