%nproc=1
%NoSave
%Mem=1900MB
#P OB98/GEN NMR

erre ene a

0 1
  C       57.475      11.647      18.716
  O       57.582      11.239      17.367
  H       56.733      12.445      18.785
  H       58.436      12.028      19.069
  H       57.156      10.810      19.343
  P       58.540       9.992      17.056
  C       58.765      10.867      14.614
  O       58.485       9.768      15.467
  C       59.054      10.364      13.199
  O       60.364       9.737      13.189
  C       58.042       9.323      12.707
  O       57.817       9.516      11.308
  C       58.761       8.005      12.935
  O       58.293       6.947      12.112
  C       60.210       8.410      12.645
  N       61.179       7.491      13.237
  C       61.519       6.359      12.505
  O       61.121       6.115      11.367
  N       62.360       5.478      13.135
  C       62.860       5.603      14.397
  O       63.591       4.768      14.916
  C       62.458       6.816      15.124
  C       61.649       7.689      14.521
  O       57.717       8.744      17.628
  O       59.917      10.078      17.620
  H       57.952       8.579      18.561
  H       58.873       6.171      12.257
  H       62.618       4.652      12.617
  H       62.828       6.945      16.133
  H       61.322       8.586      15.035
  H       60.378       8.478      11.563
  H       58.650       7.694      13.981
  H       57.093       9.366      13.243
  H       59.101      11.223      12.519
  H       59.641      11.401      14.993
  H       57.907      11.547      14.607
  P       56.543      10.395      10.880
  C       55.069       8.286      10.415
  O       55.673       9.462       9.905
  O       57.213      11.471       9.909
  O       55.808      10.962      12.048
  H       57.932      11.107       9.365
  H       54.533       7.792       9.632
  H       54.392       8.545      11.202
  H       55.826       7.633      10.796

 6  7  8  9  10  11  12  13  14  15  16  27  31  32  33  34  35 0
 6-311+G(2d,p)
 ****
 36  37 0
 6-311+G(2d,p)
 ****
 1  2  3  4  5  17  18  19  20  21  22  23  24  25 0
 3-21G
 ****
 26  28  29  30  38  39  40  41  42  43  44  45 0
 3-21G
 ****


