%nproc=1
%NoSave
%Mem=1900MB
#P OB98/GEN NMR

erre ene a

0 1
  C     -786.616     316.426    -152.867
  O     -786.887     317.559    -153.671
  H     -786.732     316.706    -151.818
  H     -785.594     316.078    -153.032
  H     -787.327     315.628    -153.097
  P     -786.738     317.367    -155.257
  C     -784.231     316.718    -155.161
  O     -785.561     316.286    -155.417
  C     -783.293     316.250    -156.273
  O     -783.496     314.852    -156.543
  C     -783.485     316.970    -157.601
  O     -782.777     318.202    -157.606
  C     -782.864     315.970    -158.566
  O     -781.431     316.117    -158.555
  C     -783.258     314.617    -157.949
  N     -785.089     311.857    -161.868
  C     -783.898     312.467    -161.686
  N     -783.502     313.229    -160.649
  C     -784.474     313.323    -159.723
  C     -785.739     312.758    -159.775
  C     -786.037     311.984    -160.911
  N     -787.249     311.362    -161.096
  N     -786.467     313.076    -158.652
  C     -785.635     313.771    -157.905
  N     -784.431     313.982    -158.523
  O     -786.594     318.621    -156.049
  O     -788.046     316.503    -155.582
  H     -781.115     315.765    -157.701
  H     -788.192     315.833    -154.892
  H     -783.175     312.332    -162.481
  H     -785.853     314.129    -156.907
  H     -782.440     313.886    -158.028
  H     -783.189     316.120    -159.596
  H     -784.544     317.099    -157.847
  H     -782.262     316.367    -155.912
  H     -783.886     316.326    -154.195
  H     -787.444     310.996    -162.020
  H     -787.993     311.566    -160.445
  H     -784.241     317.811    -155.108
  P     -783.126     319.353    -158.670
  C     -781.145     319.068    -160.284
  O     -782.531     318.821    -160.063
  O     -782.699     320.724    -158.260
  O     -784.701     319.227    -158.885
  H     -785.047     320.043    -159.307
  H     -780.860     318.673    -161.237
  H     -780.571     318.594    -159.515
  H     -780.963     320.122    -160.266

 6  7  8  9  10  11  12  13  14  15  25  28  32  33  34  35 0
 6-311+G(2d,p)
 ****
 36  39  40 0
 6-311+G(2d,p)
 ****
 1  2  3  4  5  16  17  18  19  20  21  22  23  24 0
 3-21G
 ****
 26  27  29  30  31  37  38  41  42  43  44  45  46  47 0
 3-21G
 ****
 48 0
 3-21G
 ****


