%nproc=1
%NoSave
%Mem=1900MB
#P OB98/GEN NMR

erre ene a

0 1
  C      -90.073      -4.542     -24.037
  O      -89.301      -3.863     -25.034
  P      -87.707      -3.720     -24.917
  C      -86.779      -3.937     -27.301
  O      -87.102      -3.039     -26.244
  C      -87.984      -4.297     -28.180
  O      -88.601      -3.101     -28.731
  C      -87.668      -5.216     -29.369
  O      -88.845      -6.001     -29.587
  C      -87.476      -4.219     -30.500
  O      -87.588      -4.797     -31.791
  C      -88.567      -3.207     -30.170
  N      -90.170       0.128     -33.711
  C      -90.732      -0.998     -33.217
  N      -90.263      -1.811     -32.250
  C      -89.105      -1.344     -31.749
  C      -88.418      -0.208     -32.145
  C      -88.993       0.542     -33.188
  N      -88.401       1.662     -33.728
  N      -87.248      -0.067     -31.424
  C      -87.230      -1.108     -30.614
  N      -88.333      -1.908     -30.771
  O      -87.008      -4.977     -24.508
  O      -87.495      -2.592     -23.798
  H      -87.683      -4.077     -32.441
  H      -86.805      -2.888     -23.173
  H      -91.681      -1.286     -33.662
  H      -86.438      -1.340     -29.914
  H      -89.551      -3.559     -30.501
  H      -86.474      -3.776     -30.423
  H      -86.795      -5.854     -29.209
  H      -88.736      -4.764     -27.531
  H      -86.363      -4.853     -26.864
  H      -88.842       2.076     -34.534
  H      -87.467       1.912     -33.441
  H      -85.996      -3.480     -27.920
  P      -88.892      -7.562     -29.229
  C      -91.219      -7.946     -28.241
  O      -90.413      -8.025     -29.403
  O      -88.271      -7.927     -27.922
  O      -88.145      -8.278     -30.455
  H      -87.865      -9.172     -30.184
  H      -90.983      -8.777     -27.570
  H      -92.271      -8.011     -28.532
  H      -91.057      -6.999     -27.715
  H      -91.107      -4.520     -24.311
  H      -89.944      -4.055     -23.093
  H      -89.745      -5.558     -23.962

 3  4  5  6  7  8  9  10  11  12  22  25  29  30  31  32 0
 6-311+G(2d,p)
 ****
 33  36  37 0
 6-311+G(2d,p)
 ****
 1  2  13  14  15  16  17  18  19  20  21  23  24  26 0
 3-21G
 ****
 27  28  34  35  38  39  40  41  42  43  44  45  46  47  48 0
 3-21G
 ****


