%nproc=1
%NoSave
%Mem=1900MB
#P OB98/GEN NMR

erre ene a

0 1
  C      -58.229    -295.094      27.145
  O      -57.719    -294.000      26.401
  P      -57.858    -292.529      27.023
  C      -55.319    -292.093      27.362
  O      -56.587    -292.273      27.974
  C      -54.881    -290.629      27.436
  O      -54.692    -290.247      28.827
  C      -53.567    -290.343      26.705
  O      -53.609    -289.021      26.149
  C      -52.537    -290.335      27.815
  O      -51.379    -289.584      27.452
  C      -53.351    -289.726      28.957
  N      -49.553    -288.828      32.169
  C      -49.933    -288.126      31.042
  N      -49.137    -287.099      30.676
  N      -51.002    -288.403      30.338
  C      -51.697    -289.463      30.818
  C      -51.428    -290.226      31.934
  C      -50.241    -289.918      32.694
  O      -49.832    -290.515      33.686
  N      -52.384    -291.193      32.121
  C      -53.208    -291.047      31.101
  N      -52.811    -290.035      30.264
  O      -59.074    -292.689      28.056
  O      -58.139    -291.454      26.029
  H      -50.863    -290.137      26.835
  H      -59.875    -292.272      27.690
  H      -48.716    -288.583      32.669
  H      -54.079    -291.653      30.908
  H      -53.416    -288.635      28.865
  H      -52.223    -291.359      28.046
  H      -48.267    -286.875      31.135
  H      -53.321    -291.061      25.914
  H      -49.369    -286.596      29.829
  H      -55.687    -290.001      27.042
  H      -55.384    -292.394      26.313
  H      -54.578    -292.732      27.855
  P      -52.734    -288.786      24.819
  C      -54.884    -288.923      23.356
  O      -53.585    -289.418      23.621
  O      -51.513    -289.803      25.001
  O      -52.279    -287.380      24.629
  H      -50.735    -289.492      24.500
  H      -54.897    -288.477      22.360
  H      -55.197    -288.173      24.088
  H      -55.590    -289.758      23.385
  H      -58.063    -296.002      26.604
  H      -59.279    -294.960      27.303
  H      -57.730    -295.146      28.090

 3  4  5  6  7  8  9  10  11  12  23  26  30  31 0
 6-311+G(2d,p)
 ****
 33  35  36  37  38 0
 6-311+G(2d,p)
 ****
 1  2  13  14  15  16  17  18  19  20  21  22  24  25 0
 3-21G
 ****
 27  28  29  32  34  39  40  41  42  43  44  45  46  47  48  49 0
 3-21G
 ****


