%nproc=1
%NoSave
%Mem=1900MB
#P OB98/GEN NMR

erre ene a

0 1
  C      -61.541      68.365    -109.631
  O      -60.440      68.585    -108.772
  H      -61.646      69.212    -110.313
  H      -61.354      67.463    -110.219
  H      -62.462      68.230    -109.057
  P      -60.621      69.676    -107.609
  C      -59.128      71.605    -108.497
  O      -59.260      70.531    -107.577
  C      -58.366      71.150    -109.742
  O      -59.291      70.442    -110.617
  C      -57.739      72.297    -110.552
  O      -56.465      71.862    -111.040
  C      -58.690      72.453    -111.727
  O      -58.060      73.018    -112.873
  C      -59.152      71.012    -111.929
  N      -61.276      69.684    -116.355
  C      -60.087      69.376    -115.797
  N      -59.618      69.730    -114.583
  C      -60.547      70.422    -113.899
  C      -61.804      70.808    -114.333
  C      -62.158      70.421    -115.637
  N      -63.339      70.788    -116.241
  N      -62.440      71.558    -113.362
  C      -61.571      71.646    -112.374
  N      -60.412      70.975    -112.652
  O      -60.534      68.780    -106.282
  O      -61.880      70.472    -107.665
  H      -57.584      73.827    -112.605
  H      -61.420      68.443    -106.057
  H      -59.418      68.774    -116.408
  H      -61.716      72.198    -111.456
  H      -58.428      70.411    -112.494
  H      -59.526      73.099    -111.436
  H      -57.620      73.226    -109.985
  H      -57.598      70.430    -109.436
  H      -58.573      72.420    -108.019
  H      -63.458      70.558    -117.217
  H      -63.955      71.429    -115.761
  H      -60.122      71.972    -108.770
  P      -55.164      72.612    -110.479
  C      -53.385      72.315    -112.360
  O      -53.864      71.900    -111.084
  O      -55.132      72.191    -108.936
  O      -55.204      74.099    -110.644
  H      -54.763      72.912    -108.397
  H      -52.517      71.745    -112.618
  H      -53.132      73.354    -112.325
  H      -54.146      72.157    -113.095

 6  7  8  9  10  11  12  13  14  15  25  28  32  33  34  35 0
 6-311+G(2d,p)
 ****
 36  39  40 0
 6-311+G(2d,p)
 ****
 1  2  3  4  5  16  17  18  19  20  21  22  23  24 0
 3-21G
 ****
 26  27  29  30  31  37  38  41  42  43  44  45  46  47 0
 3-21G
 ****
 48 0
 3-21G
 ****


