%nproc=1
%NoSave
%Mem=1900MB
#P OB98/GEN NMR

erre ene a

0 1
  C       -4.787     134.464      -4.615
  O       -3.911     135.456      -4.115
  H       -4.229     133.530      -4.723
  H       -5.175     134.755      -5.595
  H       -5.614     134.299      -3.920
  P       -4.478     136.940      -3.905
  C       -4.980     136.249      -1.466
  O       -5.476     136.863      -2.650
  C       -5.469     137.004      -0.233
  O       -6.905     136.941      -0.140
  C       -4.929     136.462       1.091
  O       -3.621     136.952       1.335
  C       -5.955     137.025       2.060
  O       -5.693     138.425       2.283
  C       -7.265     136.856       1.268
  N      -11.109     134.584       3.685
  C      -10.623     135.872       3.806
  N      -11.228     136.657       4.725
  N       -9.627     136.344       3.102
  C       -9.074     135.427       2.275
  C       -9.454     134.118       2.079
  C      -10.600     133.629       2.817
  O      -11.078     132.499       2.720
  N       -8.595     133.467       1.228
  C       -7.731     134.395       0.870
  N       -7.971     135.604       1.485
  O       -5.074     137.593      -5.115
  O       -3.231     137.763      -3.331
  H       -4.793     138.493       2.654
  H       -2.728     138.188      -4.050
  H      -11.873     134.273       4.260
  H       -6.915     134.252       0.168
  H       -7.978     137.662       1.475
  H       -5.933     136.534       3.035
  H      -11.895     136.308       5.398
  H       -4.972     135.368       1.123
  H      -10.848     137.585       4.869
  H       -5.202     138.062      -0.360
  H       -3.886     136.269      -1.518
  H       -5.308     135.206      -1.412
  P       -2.636     136.232       2.381
  C       -2.237     134.256       0.756
  O       -2.712     134.669       2.028
  O       -2.894     136.560       3.811
  O       -1.171     136.614       1.872
  H       -0.861     137.490       2.217
  H       -2.349     133.196       0.660
  H       -1.203     134.516       0.660
  H       -2.801     134.745      -0.011

 6  7  8  9  10  11  12  13  14  15  26  29  33  34 0
 6-311+G(2d,p)
 ****
 36  38  39  40  41 0
 6-311+G(2d,p)
 ****
 1  2  3  4  5  16  17  18  19  20  21  22  23  24  25 0
 3-21G
 ****
 27  28  30  31  32  35  37  42  43  44  45  46  47 0
 3-21G
 ****
 48  49 0
 3-21G
 ****


