%nproc=1
%NoSave
%Mem=1900MB
#P OB98/GEN NMR

erre ene a

0 1
  C      -30.087     130.538    -291.575
  O      -30.867     129.420    -291.192
  P      -30.719     128.074    -292.053
  C      -32.619     128.902    -293.631
  O      -31.288     128.412    -293.520
  C      -32.894     129.362    -295.060
  O      -32.047     130.479    -295.406
  C      -32.616     128.303    -296.118
  O      -33.687     127.381    -296.248
  C      -32.500     129.162    -297.368
  O      -33.815     129.501    -297.856
  C      -31.792     130.414    -296.834
  N      -28.016     132.403    -299.551
  C      -29.333     132.809    -299.442
  N      -29.709     133.857    -300.207
  N      -30.201     132.238    -298.649
  C      -29.683     131.198    -297.950
  C      -28.398     130.708    -297.971
  C      -27.449     131.336    -298.863
  O      -26.284     130.993    -299.043
  N      -28.250     129.649    -297.112
  C      -29.444     129.496    -296.569
  N      -30.360     130.383    -297.072
  O      -31.838     127.111    -291.441
  O      -29.356     127.456    -292.022
  H      -34.243     128.662    -298.121
  H      -31.659     126.185    -291.695
  H      -27.386     132.870    -300.184
  H      -29.693     128.753    -295.826
  H      -32.190     131.332    -297.277
  H      -31.982     128.658    -298.186
  H      -29.099     134.297    -300.887
  H      -31.661     127.798    -295.935
  H      -30.681     134.133    -300.197
  H      -33.936     129.701    -295.113
  H      -32.753     129.745    -292.943
  H      -33.322     128.113    -293.344
  P      -33.338     125.967    -296.934
  C      -34.374     126.455    -299.263
  O      -33.202     126.275    -298.499
  O      -34.719     125.162    -296.817
  O      -32.201     125.236    -296.297
  H      -34.547     124.203    -296.802
  H      -34.103     126.906    -300.222
  H      -35.087     127.111    -298.750
  H      -34.839     125.483    -299.458
  H      -30.289     131.356    -290.916
  H      -30.334     130.819    -292.578
  H      -29.049     130.284    -291.521

 3  4  5  6  7  8  9  10  11  12  23  26  30  31 0
 6-311+G(2d,p)
 ****
 33  35  36  37  38 0
 6-311+G(2d,p)
 ****
 1  2  13  14  15  16  17  18  19  20  21  22  24  25 0
 3-21G
 ****
 27  28  29  32  34  39  40  41  42  43  44  45  46  47  48  49 0
 3-21G
 ****


