%nproc=1
%NoSave
%Mem=1900MB
#P OB98/GEN NMR

erre ene a

0 1
  C      119.284       8.268     -90.721
  O      120.537       7.599     -90.894
  P      120.670       6.064     -90.453
  C      120.949       6.328     -87.902
  O      120.103       5.897     -88.959
  C      120.735       5.475     -86.643
  O      121.220       4.127     -86.874
  C      121.460       6.032     -85.409
  O      120.611       6.159     -84.267
  C      122.653       5.102     -85.250
  O      123.162       5.081     -83.924
  C      122.127       3.775     -85.813
  N      123.215       2.909     -86.269
  C      123.546       1.842     -85.445
  O      123.031       1.649     -84.346
  N      124.546       1.020     -85.899
  C      125.280       1.210     -87.031
  O      126.201       0.472     -87.375
  C      124.930       2.392     -87.834
  C      123.924       3.172     -87.420
  O      122.002       5.432     -90.695
  O      119.534       5.342     -91.331
  H      123.865       4.394     -83.874
  H      119.884       4.476     -91.620
  H      124.787       0.229     -85.321
  H      125.503       2.588     -88.725
  H      123.650       4.057     -87.978
  H      121.566       3.221     -85.051
  H      123.459       5.464     -85.898
  H      121.817       7.050     -85.582
  H      119.655       5.423     -86.461
  H      120.727       7.371     -87.664
  H      121.990       6.301     -88.236
  P      120.124       7.548     -83.650
  C      122.283       8.307     -82.431
  O      121.397       8.511     -83.515
  O      119.276       7.458     -82.426
  O      119.289       8.204     -84.852
  H      118.496       8.643     -84.491
  H      122.852       9.229     -82.271
  H      122.982       7.503     -82.679
  H      121.741       8.065     -81.512
  H      119.369       9.278     -91.064
  H      119.018       8.264     -89.685
  H      118.529       7.762     -91.285

 3  4  5  6  7  8  9  10  11  12  13  23  28  29  30  31  32 0
 6-311+G(2d,p)
 ****
 33  34 0
 6-311+G(2d,p)
 ****
 1  2  14  15  16  17  18  19  20  21  22  24  25  26  27 0
 3-21G
 ****
 35  36  37  38  39  40  41  42  43  44  45 0
 3-21G
 ****


