%nproc=1
%NoSave
%Mem=1900MB
#P OB98/GEN NMR

erre ene a

0 1
  C      156.989    -324.651     331.941
  O      156.301    -325.109     333.085
  H      156.301    -324.667     331.088
  H      157.831    -325.308     331.719
  H      157.346    -323.627     332.081
  P      157.018    -324.993     334.517
  C      158.435    -327.109     334.109
  O      157.463    -326.476     334.932
  C      158.231    -328.624     334.126
  O      159.117    -329.255     333.177
  C      158.531    -329.273     335.476
  O      157.485    -329.037     336.397
  C      158.700    -330.726     335.055
  O      157.425    -331.360     334.882
  C      159.429    -330.569     333.695
  N      160.877    -330.761     333.790
  C      161.386    -331.917     333.203
  O      160.676    -332.765     332.664
  N      162.746    -332.070     333.276
  C      163.614    -331.248     333.937
  O      164.824    -331.462     334.015
  C      163.011    -330.066     334.569
  C      161.697    -329.877     334.467
  O      156.262    -324.249     335.566
  O      158.412    -324.281     334.180
  H      157.065    -331.040     334.030
  H      158.360    -323.330     334.401
  H      163.134    -332.908     332.864
  H      163.670    -329.390     335.104
  H      161.236    -329.012     334.930
  H      159.035    -331.296     332.968
  H      159.251    -331.315     335.790
  H      159.487    -328.907     335.868
  H      157.197    -328.830     333.816
  H      159.431    -326.872     334.493
  H      158.346    -326.716     333.089
  P      157.779    -328.953     337.969
  C      156.935    -331.251     338.728
  O      156.677    -329.854     338.716
  O      157.936    -327.574     338.518
  O      159.125    -329.804     338.155
  H      159.878    -329.200     338.317
  H      156.146    -331.755     339.246
  H      157.864    -331.438     339.224
  H      156.989    -331.612     337.722

 6  7  8  9  10  11  12  13  14  15  16  26  31  32  33  34  35 0
 6-311+G(2d,p)
 ****
 36  37 0
 6-311+G(2d,p)
 ****
 1  2  3  4  5  17  18  19  20  21  22  23  24  25 0
 3-21G
 ****
 27  28  29  30  38  39  40  41  42  43  44  45 0
 3-21G
 ****


