%nproc=1
%NoSave
%Mem=1900MB
#P OB98/GEN NMR

erre ene a

0 1
  C      -88.217     437.264     152.469
  O      -86.852     437.380     152.125
  H      -88.699     436.506     151.841
  H      -88.295     436.954     153.513
  H      -88.722     438.226     152.348
  P      -86.535     437.811     150.611
  C      -85.915     435.465     149.705
  O      -86.852     436.530     149.688
  C      -86.524     434.215     149.067
  O      -86.760     434.494     147.661
  C      -85.636     432.961     149.166
  O      -86.390     431.852     149.674
  C      -85.251     432.664     147.722
  O      -85.134     431.276     147.457
  C      -86.383     433.315     146.935
  N      -86.709     431.843     142.067
  C      -87.487     431.566     143.137
  N      -87.409     432.073     144.387
  C      -86.409     432.976     144.469
  C      -85.549     433.375     143.461
  C      -85.715     432.755     142.216
  N      -84.886     432.993     141.138
  N      -84.648     434.314     143.930
  C      -84.935     434.444     145.215
  N      -85.982     433.644     145.588
  O      -84.933     437.904     150.587
  O      -87.165     439.093     150.185
  H      -84.932     431.181     146.506
  H      -84.680     438.820     150.366
  H      -88.276     430.841     142.971
  H      -84.393     435.068     145.919
  H      -87.269     432.664     146.880
  H      -84.292     433.148     147.507
  H      -84.753     433.119     149.788
  H      -87.505     434.031     149.529
  H      -85.634     435.231     150.747
  H      -85.000     432.417     140.318
  H      -84.075     433.577     141.278
  H      -85.015     435.775     149.161
  P      -85.851     431.203     151.048
  C      -84.189     429.279     150.460
  O      -84.354     430.664     150.791
  O      -86.726     429.869     151.187
  O      -86.010     432.090     152.235
  H      -87.197     429.869     152.043
  H      -83.150     429.067     150.319
  H      -84.723     429.062     149.559
  H      -84.571     428.674     151.256

 6  7  8  9  10  11  12  13  14  15  25  28  32  33  34  35 0
 6-311+G(2d,p)
 ****
 36  39  40 0
 6-311+G(2d,p)
 ****
 1  2  3  4  5  16  17  18  19  20  21  22  23  24 0
 3-21G
 ****
 26  27  29  30  31  37  38  41  42  43  44  45  46  47  48 0
 3-21G
 ****


