%nproc=1
%NoSave
%Mem=1900MB
#P OB98/GEN NMR

erre ene a

0 1
  C      333.040    -426.924    -384.466
  O      333.927    -427.941    -384.933
  P      334.827    -428.735    -383.873
  C      333.404    -430.851    -383.548
  O      333.862    -429.635    -382.964
  C      334.406    -431.986    -383.295
  O      334.685    -432.138    -381.882
  C      333.910    -433.345    -383.755
  O      333.966    -433.435    -385.167
  C      334.832    -434.273    -382.994
  O      336.090    -434.423    -383.667
  C      335.030    -433.525    -381.655
  N      334.264    -434.095    -380.552
  C      334.913    -434.116    -379.307
  O      336.066    -433.699    -379.198
  N      334.232    -434.614    -378.226
  C      333.024    -435.058    -378.370
  N      332.401    -435.544    -377.266
  C      332.324    -435.067    -379.666
  C      332.996    -434.584    -380.709
  O      335.821    -427.905    -383.126
  O      335.572    -429.825    -384.783
  H      335.891    -434.820    -384.544
  H      336.445    -430.028    -384.389
  H      331.313    -435.458    -379.730
  H      332.548    -434.556    -381.689
  H      336.085    -433.530    -381.363
  H      334.412    -435.284    -382.891
  H      332.870    -433.499    -383.419
  H      335.346    -431.739    -383.805
  H      332.921    -435.532    -376.390
  H      333.274    -430.713    -384.625
  H      331.438    -435.873    -377.264
  H      332.415    -431.096    -383.136
  P      332.701    -434.060    -385.931
  C      331.296    -431.909    -385.548
  O      331.388    -433.307    -385.379
  O      332.575    -435.525    -385.285
  O      332.805    -434.136    -387.421
  H      332.245    -436.155    -385.956
  H      330.248    -431.608    -385.432
  H      331.623    -431.615    -386.557
  H      331.902    -431.394    -384.810
  H      332.518    -426.497    -385.297
  H      333.602    -426.162    -383.968
  H      332.335    -427.351    -383.783

 3  4  5  6  7  8  9  10  11  12  13  23  27  28  29  30  32 0
 6-311+G(2d,p)
 ****
 34  35 0
 6-311+G(2d,p)
 ****
 1  2  14  15  16  17  18  19  20  21  22  24  25  26 0
 3-21G
 ****
 31  33  36  37  38  39  40  41  42  43  44  45  46 0
 3-21G
 ****


