%nproc=1
%NoSave
%Mem=1900MB
#P OB98/GEN NMR

erre ene a

0 1
  C      -73.575     209.309       0.620
  O      -74.320     210.347       1.263
  P      -73.533     211.565       1.949
  C      -72.669     213.579       0.589
  O      -73.806     212.906       1.107
  C      -73.055     214.488      -0.592
  O      -73.848     213.742      -1.550
  C      -73.872     215.718      -0.155
  O      -73.349     216.949      -0.662
  C      -75.289     215.372      -0.588
  O      -76.109     216.517      -0.776
  C      -75.063     214.477      -1.811
  N      -76.203     213.591      -2.067
  C      -76.679     213.551      -3.375
  O      -76.244     214.266      -4.276
  N      -77.731     212.700      -3.597
  C      -78.381     211.962      -2.658
  O      -79.349     211.251      -2.905
  C      -77.874     212.093      -1.281
  C      -76.822     212.891      -1.054
  O      -72.100     211.305       2.284
  O      -74.384     211.827       3.291
  H      -76.997     216.216      -1.063
  H      -73.756     212.039       4.012
  H      -78.077     212.646      -4.545
  H      -78.378     211.541      -0.501
  H      -76.436     213.011      -0.051
  H      -74.910     215.075      -2.714
  H      -75.757     214.770       0.204
  H      -73.849     215.852       0.934
  H      -72.124     214.801      -1.079
  H      -71.936     212.849       0.242
  H      -72.180     214.139       1.394
  P      -72.825     218.153       0.251
  C      -70.470     217.308       0.931
  O      -71.229     218.209       0.144
  O      -73.366     218.198       1.648
  O      -73.293     219.459      -0.565
  H      -73.619     220.134       0.067
  H      -69.454     217.700       1.033
  H      -70.419     216.336       0.427
  H      -70.903     217.174       1.932
  H      -74.250     208.582       0.219
  H      -72.928     208.841       1.332
  H      -72.990     209.728      -0.172

 3  4  5  6  7  8  9  10  11  12  13  23  28  29  30  31  32 0
 6-311+G(2d,p)
 ****
 33  34 0
 6-311+G(2d,p)
 ****
 1  2  14  15  16  17  18  19  20  21  22  24  25  26  27 0
 3-21G
 ****
 35  36  37  38  39  40  41  42  43  44  45 0
 3-21G
 ****


