%nproc=1
%NoSave
%Mem=1900MB
#P OB98/GEN NMR

erre ene a

0 1
  C     -396.544     783.074    -330.647
  O     -397.097     784.216    -331.288
  H     -395.756     782.639    -331.268
  H     -396.121     783.382    -329.690
  H     -397.325     782.330    -330.468
  P     -397.803     783.973    -332.706
  C     -396.990     784.661    -335.081
  O     -396.649     784.116    -333.815
  C     -395.735     785.061    -335.845
  O     -395.110     786.195    -335.209
  C     -394.668     783.974    -335.926
  O     -394.952     783.015    -336.934
  C     -393.445     784.823    -336.279
  O     -393.457     785.129    -337.689
  C     -393.682     786.097    -335.459
  N     -389.781     788.145    -332.839
  C     -390.278     788.404    -334.076
  N     -391.338     787.834    -334.692
  C     -391.905     786.909    -333.895
  C     -391.530     786.550    -332.616
  C     -390.401     787.211    -332.082
  N     -389.867     786.892    -330.846
  N     -392.360     785.551    -332.121
  C     -393.199     785.304    -333.107
  N     -392.974     786.107    -334.189
  O     -398.682     785.300    -332.899
  O     -398.637     782.738    -332.799
  H     -392.731     785.767    -337.843
  H     -399.599     785.117    -332.618
  H     -389.759     789.175    -334.638
  H     -393.976     784.556    -333.067
  H     -393.391     786.998    -336.003
  H     -392.499     784.310    -336.070
  H     -394.503     783.510    -334.943
  H     -396.052     785.378    -336.854
  H     -397.636     785.540    -334.937
  H     -388.865     787.052    -330.786
  H     -390.206     786.017    -330.454
  H     -397.563     783.910    -335.645
  P     -394.305     781.556    -336.770
  C     -391.931     780.591    -337.106
  O     -392.711     781.755    -336.877
  O     -394.689     780.846    -338.163
  O     -394.789     780.772    -335.605
  H     -395.175     780.015    -337.978
  H     -390.896     780.859    -337.156
  H     -392.227     780.139    -338.029
  H     -392.081     779.898    -336.305

 6  7  8  9  10  11  12  13  14  15  25  28  32  33  34  35 0
 6-311+G(2d,p)
 ****
 36  39  40 0
 6-311+G(2d,p)
 ****
 1  2  3  4  5  16  17  18  19  20  21  22  23  24 0
 3-21G
 ****
 26  27  29  30  31  37  38  41  42  43  44  45  46  47  48 0
 3-21G
 ****


