%nproc=1
%NoSave
%Mem=1900MB
#P OB98/GEN NMR

erre ene a

0 1
  C     -886.876     464.472    1309.439
  O     -885.616     463.833    1309.565
  P     -884.797     463.944    1310.958
  C     -883.577     462.249    1312.464
  O     -884.445     462.425    1311.364
  C     -883.428     460.745    1312.816
  O     -884.705     460.208    1313.227
  C     -882.960     459.864    1311.669
  O     -881.556     460.022    1311.457
  C     -883.386     458.496    1312.132
  O     -882.447     457.954    1313.044
  C     -884.730     458.813    1312.873
  N     -885.892     458.470    1312.056
  C     -886.413     457.174    1312.247
  O     -885.862     456.397    1313.040
  N     -887.498     456.777    1311.510
  C     -887.997     457.580    1310.641
  N     -889.103     457.145    1309.934
  C     -887.495     458.924    1310.375
  C     -886.442     459.284    1311.117
  O     -885.448     464.741    1312.020
  O     -883.383     464.532    1310.483
  H     -881.571     457.935    1312.586
  H     -883.445     465.489    1310.263
  H     -887.956     459.587    1309.634
  H     -885.969     460.296    1311.007
  H     -884.788     458.256    1313.794
  H     -883.521     457.787    1311.307
  H     -883.508     460.119    1310.735
  H     -882.737     460.669    1313.684
  H     -889.392     456.199    1310.117
  H     -884.002     462.781    1313.330
  H     -889.558     457.675    1309.193
  H     -882.583     462.667    1312.224
  P     -880.954     459.841    1309.995
  C     -878.862     460.657    1308.697
  O     -879.546     460.608    1309.945
  O     -881.852     460.141    1308.856
  O     -880.483     458.298    1309.979
  H     -880.772     457.890    1309.121
  H     -878.114     461.441    1308.736
  H     -879.555     460.823    1307.871
  H     -878.345     459.706    1308.554
  H     -887.270     464.294    1308.460
  H     -886.759     465.525    1309.591
  H     -887.550     464.079    1310.171

 3  4  5  6  7  8  9  10  11  12  13  23  27  28  29  30  32 0
 6-311+G(2d,p)
 ****
 34  35 0
 6-311+G(2d,p)
 ****
 1  2  14  15  16  17  18  19  20  21  22  24  25  26 0
 3-21G
 ****
 31  33  36  37  38  39  40  41  42  43  44  45  46 0
 3-21G
 ****


