%nproc=1
%NoSave
%Mem=1900MB
#P OB98/GEN NMR

erre ene a

0 1
  C      142.701     254.478      66.561
  O      143.833     253.902      67.181
  P      145.166     254.767      67.372
  C      145.575     254.996      64.846
  O      146.092     254.528      66.086
  C      146.624     254.852      63.745
  O      147.685     255.811      63.934
  C      147.304     253.489      63.712
  O      146.458     252.516      63.132
  C      148.559     253.807      62.907
  O      148.271     253.803      61.499
  C      148.889     255.229      63.383
  N      153.792     256.383      64.176
  C      153.057     256.308      63.048
  N      151.760     255.954      62.914
  C      151.234     255.636      64.107
  C      151.870     255.630      65.339
  C      153.211     256.051      65.354
  N      153.953     256.191      66.506
  N      151.001     255.210      66.328
  C      149.869     254.959      65.703
  N      149.945     255.264      64.373
  O      145.852     254.601      68.686
  O      144.668     256.276      67.180
  H      149.065     254.136      61.040
  H      144.843     256.781      67.997
  H      153.573     256.577      62.131
  H      148.971     254.577      66.168
  H      149.199     255.874      62.553
  H      149.362     253.083      63.076
  H      147.595     253.193      64.726
  H      146.141     255.067      62.783
  H      145.302     256.049      64.962
  H      154.853     256.636      66.418
  H      153.460     256.243      67.393
  H      144.677     254.425      64.589
  P      145.696     251.464      64.067
  C      147.343     249.499      64.109
  O      146.134     250.002      63.577
  O      144.226     251.675      64.212
  O      146.445     251.603      65.476
  H      145.812     251.431      66.198
  H      148.190     249.959      63.593
  H      147.375     248.419      63.951
  H      147.413     249.703      65.181
  H      141.911     253.757      66.521
  H      142.956     254.784      65.568
  H      142.379     255.328      67.125

 3  4  5  6  7  8  9  10  11  12  22  25  29  30  31  32 0
 6-311+G(2d,p)
 ****
 33  36  37 0
 6-311+G(2d,p)
 ****
 1  2  13  14  15  16  17  18  19  20  21  23  24  26 0
 3-21G
 ****
 27  28  34  35  38  39  40  41  42  43  44  45  46  47  48 0
 3-21G
 ****


