%nproc=1
%NoSave
%Mem=1900MB
#P OB98/GEN NMR

erre ene a

0 1
  C       51.071     -50.334     303.748
  O       52.039     -49.314     303.899
  H       51.465     -51.096     303.071
  H       50.158     -49.918     303.316
  H       50.850     -50.800     304.713
  P       51.776     -48.209     305.029
  C       50.121     -46.222     305.292
  O       50.462     -47.401     304.577
  C       49.375     -45.251     304.369
  O       50.326     -44.700     303.414
  C       48.241     -45.902     303.566
  O       47.174     -44.956     303.442
  C       48.869     -46.125     302.202
  O       47.929     -46.227     301.140
  C       49.771     -44.890     302.096
  N       50.831     -45.052     301.099
  C       50.577     -44.572     299.815
  O       49.571     -43.949     299.483
  N       51.551     -44.834     298.887
  C       52.708     -45.532     299.103
  O       53.530     -45.751     298.222
  C       52.910     -46.018     300.472
  C       51.976     -45.764     301.392
  O       52.959     -47.157     304.787
  O       51.740     -48.720     306.432
  H       53.745     -47.402     305.313
  H       47.456     -47.075     301.251
  H       51.386     -44.494     297.954
  H       53.809     -46.583     300.678
  H       52.088     -46.129     302.409
  H       49.175     -44.002     301.857
  H       49.466     -47.044     302.213
  H       47.858     -46.834     304.001
  H       49.000     -44.414     304.970
  H       51.034     -45.736     305.652
  H       49.495     -46.485     306.151
  P       46.148     -44.829     304.673
  C       44.329     -46.462     305.627
  O       45.503     -46.289     304.844
  O       44.987     -43.953     304.020
  O       46.775     -44.248     305.894
  H       44.840     -44.148     303.076
  H       44.048     -47.495     305.626
  H       43.535     -45.876     305.213
  H       44.520     -46.145     306.631

 6  7  8  9  10  11  12  13  14  15  16  27  31  32  33  34  35 0
 6-311+G(2d,p)
 ****
 36  37 0
 6-311+G(2d,p)
 ****
 1  2  3  4  5  17  18  19  20  21  22  23  24  25 0
 3-21G
 ****
 26  28  29  30  38  39  40  41  42  43  44  45 0
 3-21G
 ****


