%nproc=1
%NoSave
%Mem=1900MB
#P OB98/GEN NMR

erre ene a

0 1
  C     -166.400     398.816    -585.015
  O     -166.329     399.702    -583.889
  P     -166.566     401.269    -584.146
  C     -164.247     401.634    -585.270
  O     -165.651     401.712    -585.394
  C     -163.563     402.385    -586.412
  O     -164.176     403.676    -586.650
  C     -162.081     402.656    -586.183
  O     -161.273     401.541    -586.511
  C     -161.830     403.792    -587.166
  O     -161.653     403.242    -588.500
  C     -163.143     404.590    -587.082
  N     -160.870     409.016    -586.169
  C     -160.702     408.141    -587.217
  N     -159.820     408.499    -588.171
  N     -161.361     407.013    -587.330
  C     -162.225     406.797    -586.311
  C     -162.472     407.588    -585.217
  C     -161.730     408.836    -585.101
  O     -161.816     409.642    -584.170
  N     -163.412     407.032    -584.387
  C     -163.760     405.916    -585.001
  N     -163.048     405.717    -586.165
  O     -165.813     401.943    -582.899
  O     -168.003     401.661    -584.208
  H     -161.463     404.002    -589.091
  H     -166.234     402.802    -582.699
  H     -160.328     409.879    -586.128
  H     -164.510     405.212    -584.637
  H     -163.442     404.995    -588.057
  H     -160.926     404.357    -586.939
  H     -159.315     409.366    -588.174
  H     -161.908     403.009    -585.146
  H     -159.719     407.874    -588.980
  H     -163.669     401.777    -587.336
  H     -163.920     400.583    -585.267
  H     -163.948     402.042    -584.294
  P     -160.706     400.638    -585.300
  C     -158.481     401.960    -585.252
  O     -159.619     401.542    -584.543
  O     -159.829     399.534    -586.071
  O     -161.769     400.014    -584.450
  H     -159.845     398.688    -585.571
  H     -157.932     402.700    -584.641
  H     -158.748     402.446    -586.196
  H     -157.817     401.118    -585.451
  H     -166.222     397.812    -584.691
  H     -165.659     399.094    -585.735
  H     -167.371     398.881    -585.459

 3  4  5  6  7  8  9  10  11  12  23  26  30  31 0
 6-311+G(2d,p)
 ****
 33  35  36  37  38 0
 6-311+G(2d,p)
 ****
 1  2  13  14  15  16  17  18  19  20  21  22  24  25 0
 3-21G
 ****
 27  28  29  32  34  39  40  41  42  43  44  45  46  47  48  49 0
 3-21G
 ****


