%nproc=1
%NoSave
%Mem=1900MB
#P OB98/GEN NMR

erre ene a

0 1
  C      220.567     476.698      14.071
  O      219.603     476.819      15.103
  P      218.207     476.042      14.909
  C      217.236     478.257      13.957
  O      217.055     477.155      14.841
  C      215.973     479.119      13.891
  O      216.282     480.356      13.190
  C      214.789     478.462      13.158
  O      213.595     478.902      13.821
  C      214.907     479.067      11.767
  O      213.729     478.943      10.984
  C      215.318     480.488      12.121
  N      214.276     482.965       7.767
  C      213.474     482.417       8.710
  N      213.820     481.781       9.852
  C      215.163     481.748       9.984
  C      216.108     482.243       9.098
  C      215.618     482.883       7.947
  N      216.442     483.431       6.982
  N      217.382     481.999       9.561
  C      217.211     481.357      10.699
  N      215.892     481.204      11.004
  O      217.975     475.362      16.337
  O      218.192     475.036      13.797
  H      213.477     478.005      10.909
  H      217.595     474.467      16.249
  H      212.404     482.507       8.518
  H      218.007     480.983      11.328
  H      214.475     481.081      12.506
  H      215.704     478.554      11.220
  H      214.821     477.365      13.170
  H      215.683     479.387      14.914
  H      217.447     477.881      12.955
  H      216.005     483.681       6.109
  H      217.425     483.180       7.018
  H      218.099     478.844      14.284
  P      212.340     477.911      13.900
  C      210.953     479.524      12.460
  O      211.070     478.878      13.717
  O      212.291     477.609      15.475
  O      212.408     476.695      13.038
  H      212.311     478.433      15.996
  H      210.003     480.069      12.439
  H      210.964     478.796      11.647
  H      211.771     480.240      12.334
  H      221.439     477.261      14.330
  H      220.159     477.073      13.156
  H      220.831     475.668      13.948

 3  4  5  6  7  8  9  10  11  12  22  25  29  30  31  32 0
 6-311+G(2d,p)
 ****
 33  36  37 0
 6-311+G(2d,p)
 ****
 1  2  13  14  15  16  17  18  19  20  21  23  24  26 0
 3-21G
 ****
 27  28  34  35  38  39  40  41  42  43  44  45  46  47  48 0
 3-21G
 ****


