%nproc=1
%NoSave
%Mem=1900MB
#P OB98/GEN NMR

erre ene a

0 1
  C      316.982    -156.644     146.444
  O      317.749    -155.462     146.312
  H      317.218    -157.108     147.408
  H      317.215    -157.353     145.649
  H      315.914    -156.404     146.427
  P      317.773    -154.736     144.879
  C      318.105    -155.592     142.463
  O      318.335    -155.834     143.847
  C      319.283    -156.081     141.616
  O      319.604    -157.445     141.959
  C      319.000    -156.104     140.121
  O      318.875    -154.819     139.537
  C      320.053    -157.065     139.601
  O      321.305    -156.444     139.327
  C      320.208    -158.046     140.794
  N      319.631    -159.354     140.501
  C      320.538    -160.344     140.121
  O      321.752    -160.144     140.003
  N      320.001    -161.566     139.830
  C      318.667    -161.875     139.837
  O      318.244    -162.985     139.529
  C      317.760    -160.785     140.228
  C      318.274    -159.595     140.533
  O      318.506    -153.425     144.823
  O      316.228    -154.630     144.481
  H      321.289    -156.172     138.390
  H      316.089    -153.968     143.753
  H      320.644    -162.295     139.564
  H      316.695    -160.999     140.240
  H      317.623    -158.774     140.825
  H      321.270    -158.196     141.029
  H      319.727    -157.553     138.673
  H      318.031    -156.591     139.969
  H      320.156    -155.458     141.842
  H      317.991    -154.508     142.327
  H      317.179    -156.087     142.151
  P      318.012    -154.528     138.232
  C      317.957    -155.604     135.862
  O      318.757    -155.210     136.972
  O      317.465    -153.152     138.074
  O      316.759    -155.523     138.448
  H      315.965    -155.091     138.071
  H      318.581    -156.037     135.108
  H      317.456    -154.747     135.461
  H      317.232    -156.323     136.182

 6  7  8  9  10  11  12  13  14  15  16  26  31  32  33  34  35 0
 6-311+G(2d,p)
 ****
 36  37 0
 6-311+G(2d,p)
 ****
 1  2  3  4  5  17  18  19  20  21  22  23  24  25 0
 3-21G
 ****
 27  28  29  30  38  39  40  41  42  43  44  45 0
 3-21G
 ****


