%nproc=1
%NoSave
%Mem=1900MB
#P OB98/GEN NMR

erre ene a

0 1
  C     -566.254    -322.973    -152.861
  O     -567.056    -322.700    -153.993
  H     -565.198    -323.002    -153.143
  H     -566.399    -322.175    -152.126
  H     -566.549    -323.924    -152.409
  P     -566.999    -323.764    -155.194
  C     -569.023    -325.011    -154.143
  O     -568.475    -324.387    -155.296
  C     -570.034    -326.071    -154.563
  O     -571.218    -325.441    -155.104
  C     -569.538    -327.015    -155.651
  O     -568.726    -328.051    -155.130
  C     -570.856    -327.559    -156.171
  O     -571.368    -328.548    -155.259
  C     -571.742    -326.305    -156.151
  N     -574.629    -324.765    -160.088
  C     -574.912    -325.503    -158.998
  N     -574.088    -325.875    -157.995
  C     -572.848    -325.400    -158.201
  C     -572.404    -324.641    -159.273
  C     -573.362    -324.313    -160.247
  N     -573.071    -323.574    -161.374
  N     -571.056    -324.376    -159.158
  C     -570.699    -324.936    -158.018
  N     -571.745    -325.578    -157.409
  O     -566.137    -324.972    -154.587
  O     -566.444    -323.255    -156.483
  H     -572.090    -329.012    -155.729
  H     -565.767    -325.514    -155.311
  H     -575.943    -325.844    -158.912
  H     -569.702    -324.906    -157.593
  H     -572.784    -326.533    -155.901
  H     -570.767    -328.039    -157.151
  H     -569.028    -326.471    -156.459
  H     -570.335    -326.630    -153.667
  H     -569.523    -324.252    -153.532
  H     -573.774    -323.553    -162.093
  H     -572.101    -323.366    -161.576
  H     -568.215    -325.465    -153.562
  P     -567.278    -328.262    -155.792
  C     -566.298    -328.004    -153.393
  O     -566.320    -328.754    -154.607
  O     -566.781    -326.763    -156.068
  O     -567.270    -329.099    -157.026
  H     -566.149    -326.737    -156.807
  H     -565.614    -328.457    -152.706
  H     -567.278    -327.991    -152.964
  H     -565.985    -327.002    -153.599

 6  7  8  9  10  11  12  13  14  15  25  28  32  33  34  35 0
 6-311+G(2d,p)
 ****
 36  39  40 0
 6-311+G(2d,p)
 ****
 1  2  3  4  5  16  17  18  19  20  21  22  23  24 0
 3-21G
 ****
 26  27  29  30  31  37  38  41  42  43  44  45  46  47 0
 3-21G
 ****
 48 0
 3-21G
 ****


