%nproc=1
%NoSave
%Mem=1900MB
#P OB98/GEN NMR

erre ene a

0 1
  C     -325.916      32.762     -65.129
  O     -326.584      31.816     -65.948
  P     -328.112      31.479     -65.613
  C     -327.740      29.102     -64.610
  O     -328.271      29.887     -65.667
  C     -328.600      27.849     -64.412
  O     -329.964      28.221     -64.118
  C     -328.680      26.954     -65.639
  O     -327.505      26.162     -65.779
  C     -329.934      26.147     -65.355
  O     -329.644      25.032     -64.498
  C     -330.822      27.183     -64.631
  N     -331.871      27.717     -65.488
  C     -333.073      27.018     -65.485
  O     -333.252      25.993     -64.822
  N     -334.058      27.513     -66.301
  C     -333.943      28.584     -67.143
  O     -334.844      28.944     -67.895
  C     -332.636      29.268     -67.126
  C     -331.674      28.804     -66.322
  O     -328.910      31.987     -66.907
  O     -328.627      32.112     -64.360
  H     -328.977      25.336     -63.853
  H     -329.775      32.352     -66.641
  H     -334.946      27.036     -66.295
  H     -332.503      30.116     -67.789
  H     -330.702      29.284     -66.304
  H     -331.297      26.722     -63.753
  H     -330.373      25.740     -66.269
  H     -328.837      27.570     -66.541
  H     -328.205      27.290     -63.552
  H     -327.725      29.692     -63.689
  H     -326.708      28.822     -64.857
  P     -327.089      25.723     -67.263
  C     -327.285      23.127     -67.011
  O     -326.448      24.266     -67.103
  O     -325.847      26.705     -67.528
  O     -328.204      25.859     -68.248
  H     -325.354      26.889     -66.711
  H     -328.185      23.235     -67.627
  H     -327.576      22.987     -65.967
  H     -326.727      22.254     -67.346
  H     -324.910      32.883     -65.472
  H     -325.909      32.415     -64.117
  H     -326.426      33.701     -65.181

 3  4  5  6  7  8  9  10  11  12  13  23  28  29  30  31  32 0
 6-311+G(2d,p)
 ****
 33  34 0
 6-311+G(2d,p)
 ****
 1  2  14  15  16  17  18  19  20  21  22  24  25  26 0
 3-21G
 ****
 27  35  36  37  38  39  40  41  42  43  44  45 0
 3-21G
 ****


