%nproc=1
%NoSave
%Mem=1900MB
#P OB98/GEN NMR

erre ene a

0 1
  C     -218.094       5.426     174.015
  O     -219.342       5.427     173.351
  H     -217.750       4.400     174.177
  H     -217.364       5.950     173.392
  H     -218.179       5.947     174.973
  P     -220.525       4.610     174.062
  C     -220.345       2.866     172.152
  O     -220.399       3.092     173.552
  C     -219.263       1.844     171.825
  O     -217.984       2.297     172.314
  C     -219.471       0.472     172.457
  O     -220.426      -0.301     171.742
  C     -218.070      -0.111     172.329
  O     -217.872      -0.611     170.995
  C     -217.179       1.117     172.570
  N     -214.284       3.848     175.816
  C     -214.629       4.053     174.523
  N     -215.390       3.281     173.722
  C     -215.832       2.198     174.381
  C     -215.564       1.857     175.697
  C     -214.745       2.733     176.427
  N     -214.386       2.506     177.737
  N     -216.199       0.680     176.034
  C     -216.839       0.315     174.942
  N     -216.642       1.199     173.913
  O     -221.844       5.139     173.317
  O     -220.626       4.784     175.539
  H     -218.457      -1.387     170.897
  H     -222.576       5.177     173.961
  H     -214.242       4.965     174.073
  H     -217.458      -0.570     174.852
  H     -216.339       1.146     171.866
  H     -217.885      -0.937     173.020
  H     -219.734       0.558     173.516
  H     -219.195       1.762     170.732
  H     -220.115       3.807     171.640
  H     -213.969       3.257     178.261
  H     -214.744       1.671     178.191
  H     -221.323       2.508     171.813
  P     -221.803      -0.655     172.494
  C     -221.723      -3.129     171.716
  O     -221.724      -2.226     172.816
  O     -222.886      -0.573     171.320
  O     -222.149       0.237     173.637
  H     -223.767      -0.377     171.696
  H     -221.667      -4.134     172.079
  H     -220.878      -2.928     171.091
  H     -222.623      -3.004     171.151

 6  7  8  9  10  11  12  13  14  15  25  28  32  33  34  35 0
 6-311+G(2d,p)
 ****
 36  39  40 0
 6-311+G(2d,p)
 ****
 1  2  3  4  5  16  17  18  19  20  21  22  23  24 0
 3-21G
 ****
 26  27  29  30  31  37  38  41  42  43  44  45  46  47  48 0
 3-21G
 ****


