%nproc=1
%NoSave
%Mem=1900MB
#P OB98/GEN NMR

erre ene a

0 1
  C      218.168     373.061      56.455
  O      217.221     373.523      55.514
  H      218.010     371.992      56.619
  H      218.025     373.585      57.404
  H      219.187     373.216      56.092
  P      217.458     374.980      54.893
  C      215.012     375.742      55.275
  O      216.042     375.491      54.332
  C      213.642     375.633      54.609
  O      213.328     376.901      53.977
  C      213.562     374.545      53.529
  O      212.278     373.916      53.602
  C      213.678     375.322      52.233
  O      213.079     374.644      51.130
  C      212.991     376.632      52.605
  N      212.323     378.755      48.083
  C      211.653     377.709      48.684
  N      210.660     377.135      47.974
  N      211.935     377.263      49.882
  C      212.925     377.956      50.490
  C      213.668     379.005      50.000
  C      213.367     379.469      48.663
  O      213.938     380.377      48.069
  N      214.608     379.416      50.912
  C      214.433     378.617      51.948
  N      213.420     377.719      51.743
  O      218.301     374.679      53.566
  O      218.171     375.947      55.781
  H      212.845     375.323      50.460
  H      219.190     375.071      53.643
  H      212.077     379.050      47.154
  H      215.015     378.642      52.862
  H      211.896     376.568      52.525
  H      214.735     375.491      51.995
  H      210.360     377.457      47.066
  H      214.341     373.789      53.628
  H      210.131     376.386      48.407
  H      212.886     375.470      55.387
  H      215.140     376.750      55.680
  H      215.087     375.018      56.094
  P      212.248     372.373      54.050
  C      210.108     371.763      52.726
  O      210.725     371.864      54.000
  O      212.572     372.443      55.616
  O      213.232     371.515      53.328
  H      213.472     372.113      55.784
  H      209.103     371.415      52.843
  H      210.656     371.074      52.118
  H      210.100     372.724      52.256

 6  7  8  9  10  11  12  13  14  15  26  29  33  34 0
 6-311+G(2d,p)
 ****
 36  38  39  40  41 0
 6-311+G(2d,p)
 ****
 1  2  3  4  5  16  17  18  19  20  21  22  23  24  25 0
 3-21G
 ****
 27  28  30  31  32  35  37  42  43  44  45  46  47 0
 3-21G
 ****
 48  49 0
 3-21G
 ****


