%nproc=1
%NoSave
%Mem=1900MB
#P OB98/GEN NMR

erre ene a

0 1
  C      526.322      88.641     487.762
  O      527.296      88.648     488.790
  H      526.786      89.019     486.847
  H      525.485      89.292     488.030
  H      525.966      87.627     487.581
  P      526.822      88.105     490.226
  C      529.232      87.744     491.137
  O      528.005      88.453     491.253
  C      530.382      88.613     491.643
  O      530.087      89.097     492.970
  C      531.708      87.867     491.770
  O      532.358      87.713     490.521
  C      532.461      88.782     492.731
  O      533.075      89.880     492.048
  C      531.344      89.286     493.656
  N      532.302      89.724     498.663
  C      532.336      90.626     497.650
  N      532.048      90.436     496.334
  C      531.679      89.155     496.118
  C      531.603      88.126     497.048
  C      531.939      88.449     498.372
  N      531.935      87.531     499.397
  N      531.229      86.944     496.439
  C      531.074      87.261     495.170
  N      531.333      88.580     494.934
  O      526.920      86.512     490.058
  O      525.458      88.531     490.653
  H      533.311      90.530     492.738
  H      526.037      86.144     489.884
  H      532.613      91.644     497.923
  H      530.792      86.557     494.380
  H      531.441      90.359     493.883
  H      533.245      88.228     493.244
  H      531.549      86.893     492.249
  H      530.484      89.480     490.975
  H      529.411      87.490     490.080
  H      529.160      86.818     491.719
  H      532.256      87.817     500.315
  H      531.775      86.559     499.181
  P      533.382      86.492     490.366
  C      533.161      86.514     487.766
  O      534.018      86.588     488.889
  O      532.438      85.188     490.285
  O      534.387      86.371     491.473
  H      532.864      84.449     490.746
  H      533.740      86.593     486.870
  H      532.452      87.315     487.805
  H      532.643      85.578     487.774

 6  7  8  9  10  11  12  13  14  15  25  28  32  33  34  35 0
 6-311+G(2d,p)
 ****
 36  37  40 0
 6-311+G(2d,p)
 ****
 1  2  3  4  5  16  17  18  19  20  21  22  23  24 0
 3-21G
 ****
 26  27  29  30  31  38  39 41  42  43  44  45  46  47  48 0
 3-21G
 ****


