%nproc=1
%NoSave
%Mem=1900MB
#P OB98/GEN NMR

erre ene a

0 1
  C     -286.975     126.486      11.770
  O     -285.981     125.806      12.540
  P     -284.918     126.718      13.323
  C     -286.584     127.915      14.918
  O     -285.673     128.038      13.832
  C     -285.892     128.303      16.227
  O     -285.535     129.703      16.245
  C     -286.770     128.095      17.455
  O     -286.860     126.721      17.789
  C     -286.030     128.947      18.481
  O     -284.886     128.245      18.994
  C     -285.561     130.140      17.628
  N     -285.894     134.942      19.373
  C     -284.895     134.032      19.411
  N     -284.886     132.775      18.926
  C     -286.057     132.482      18.340
  C     -287.166     133.306      18.219
  C     -287.056     134.592      18.776
  N     -288.081     135.511      18.746
  N     -288.188     132.656      17.557
  C     -287.712     131.451      17.302
  N     -286.426     131.303      17.746
  O     -283.964     127.254      12.154
  O     -284.150     125.982      14.370
  H     -284.582     128.724      19.793
  H     -283.092     126.820      12.212
  H     -283.979     134.360      19.897
  H     -288.257     130.661      16.803
  H     -284.548     130.463      17.887
  H     -286.653     129.226      19.336
  H     -287.775     128.503      17.282
  H     -284.975     127.708      16.318
  H     -286.955     126.890      14.986
  H     -287.950     136.383      19.235
  H     -288.983     135.231      18.383
  H     -287.449     128.554      14.726
  P     -288.301     126.025      17.700
  C     -287.720     124.796      15.518
  O     -288.516     125.798      16.123
  O     -289.273     127.254      18.011
  O     -288.474     124.818      18.554
  H     -289.016     128.053      17.519
  H     -287.989     124.725      14.461
  H     -287.899     123.831      15.997
  H     -286.662     125.064      15.597
  H     -287.616     125.769      11.302
  H     -286.499     127.082      11.020
  H     -287.554     127.116      12.412

 3  4  5  6  7  8  9  10  11  12  22  25  29  30  31  32 0
 6-311+G(2d,p)
 ****
 33  36  37 0
 6-311+G(2d,p)
 ****
 1  2  13  14  15  16  17  18  19  20  21  23  24  26 0
 3-21G
 ****
 27  28  34  35  38  39  40  41  42  43  44  45  46  47  48 0
 3-21G
 ****


