%nproc=1
%NoSave
%Mem=1900MB
#P OB98/GEN NMR

erre ene a

0 1
  C     -203.982     316.872    -214.508
  O     -203.941     315.997    -213.397
  H     -202.959     317.164    -214.758
  H     -204.558     317.768    -214.265
  H     -204.423     316.363    -215.369
  P     -205.352     315.474    -212.842
  C     -204.444     313.052    -212.762
  O     -205.417     313.936    -213.301
  C     -203.616     312.423    -213.882
  O     -202.898     313.442    -214.600
  C     -202.570     311.424    -213.405
  O     -203.160     310.146    -213.208
  C     -201.613     311.416    -214.587
  O     -202.132     310.561    -215.626
  C     -201.639     312.881    -215.057
  N     -198.121     316.404    -216.309
  C     -198.944     315.647    -217.066
  N     -199.809     314.691    -216.672
  C     -199.793     314.555    -215.337
  C     -199.010     315.256    -214.433
  C     -198.142     316.223    -214.965
  N     -197.301     316.993    -214.188
  N     -199.258     314.844    -213.141
  C     -200.224     313.952    -213.258
  N     -200.556     313.715    -214.569
  O     -206.537     316.314    -213.191
  O     -205.040     315.354    -211.275
  H     -202.326     309.698    -215.209
  H     -204.148     314.990    -211.132
  H     -198.893     315.832    -218.141
  H     -200.727     313.466    -212.431
  H     -201.623     312.957    -216.150
  H     -200.628     311.034    -214.327
  H     -202.040     311.777    -212.513
  H     -204.309     311.955    -214.591
  H     -204.933     312.262    -212.178
  H     -196.586     317.520    -214.663
  H     -197.229     316.767    -213.208
  H     -203.802     313.631    -212.091
  P     -202.998     309.364    -211.815
  C     -205.526     309.139    -211.400
  O     -204.306     309.740    -210.971
  O     -201.691     309.588    -211.127
  O     -203.246     307.830    -212.194
  H     -202.912     307.252    -211.479
  H     -206.325     309.462    -210.766
  H     -205.437     308.074    -211.347
  H     -205.732     309.430    -212.409

 6  7  8  9  10  11  12  13  14  15  25  28  32  33  34  35 0
 6-311+G(2d,p)
 ****
 36  39  40 0
 6-311+G(2d,p)
 ****
 1  2  3  4  5  16  17  18  19  20  21  22  23  24 0
 3-21G
 ****
 26  27  29  30  31  37  38  41  42  43  44  45  46  47 0
 3-21G
 ****
 48 0
 3-21G
 ****


