%nproc=1
%NoSave
%Mem=1900MB
#P OB98/GEN NMR

erre ene a

0 1
  C      -17.753     142.364      22.277
  O      -18.202     143.084      23.413
  P      -19.211     142.410      24.461
  C      -20.961     143.653      23.045
  O      -20.672     142.481      23.799
  C      -22.470     143.848      22.910
  O      -23.018     142.736      22.162
  C      -23.198     143.905      24.248
  O      -24.278     144.838      24.147
  C      -23.786     142.514      24.417
  O      -24.948     142.538      25.259
  C      -24.049     142.120      22.958
  N      -26.426     137.639      23.765
  C      -26.769     138.908      24.082
  N      -26.078     140.048      23.861
  C      -24.943     139.788      23.190
  C      -24.462     138.548      22.796
  C      -25.259     137.433      23.111
  N      -24.912     136.142      22.775
  N      -23.244     138.677      22.155
  C      -23.007     139.970      22.147
  N      -24.009     140.686      22.752
  O      -19.132     142.948      25.849
  O      -18.864     140.851      24.408
  H      -24.631     142.580      26.185
  H      -18.924     140.457      25.300
  H      -27.723     139.023      24.585
  H      -22.127     140.438      21.731
  H      -25.018     142.494      22.609
  H      -23.044     141.856      24.882
  H      -22.540     144.181      25.079
  H      -22.654     144.758      22.326
  H      -20.522     143.540      22.050
  H      -25.600     135.422      22.934
  H      -24.136     136.007      22.140
  H      -20.501     144.521      23.530
  P      -24.302     146.008      25.254
  C      -25.930     144.709      26.816
  O      -24.646     145.259      26.629
  O      -25.187     147.141      24.854
  O      -22.745     146.376      25.354
  H      -22.180     145.619      25.082
  H      -25.985     144.278      27.822
  H      -26.110     143.912      26.090
  H      -26.699     145.482      26.720
  H      -17.091     142.979      21.703
  H      -18.593     142.087      21.676
  H      -17.235     141.483      22.595

 3  4  5  6  7  8  9  10  11  12  22  25  29  30  31  32 0
 6-311+G(2d,p)
 ****
 33  36  37 0
 6-311+G(2d,p)
 ****
 1  2  13  14  15  16  17  18  19  20  21  23  24  26 0
 3-21G
 ****
 27  28  34  35  38  39  40  41  42  43  44  45  46  47  48 0
 3-21G
 ****


