%nproc=1
%NoSave
%Mem=1900MB
#P OB98/GEN NMR

erre ene a

0 1
  C      283.193     -49.491    -856.134
  O      281.930     -49.420    -855.486
  P      280.916     -50.652    -855.695
  C      281.280     -52.091    -853.557
  O      280.476     -51.121    -854.223
  C      281.418     -51.748    -852.079
  O      282.291     -50.614    -851.919
  C      280.118     -51.367    -851.390
  O      279.344     -52.503    -851.026
  C      280.631     -50.648    -850.155
  O      280.994     -51.601    -849.152
  C      281.896     -49.923    -850.697
  N      283.491     -45.199    -849.874
  C      283.984     -46.393    -849.384
  N      285.067     -46.329    -848.586
  N      283.447     -47.561    -849.661
  C      282.395     -47.482    -850.502
  C      281.818     -46.347    -851.051
  C      282.383     -45.059    -850.688
  O      281.964     -43.968    -851.053
  N      280.761     -46.671    -851.866
  C      280.730     -47.997    -851.844
  N      281.682     -48.523    -851.012
  O      281.884     -51.834    -856.172
  O      279.818     -50.404    -856.667
  H      280.186     -52.086    -848.901
  H      281.389     -52.487    -856.711
  H      283.960     -44.330    -849.647
  H      280.036     -48.594    -852.424
  H      282.728     -49.998    -850.003
  H      279.888     -49.964    -849.712
  H      285.605     -45.474    -848.453
  H      279.521     -50.674    -852.014
  H      285.465     -47.188    -848.257
  H      281.881     -52.610    -851.573
  H      282.279     -52.108    -854.015
  H      280.807     -53.070    -853.696
  P      277.762     -52.290    -850.839
  C      277.149     -52.364    -853.360
  O      277.081     -53.002    -852.104
  O      277.585     -50.722    -851.117
  O      277.243     -52.675    -849.487
  H      276.791     -50.380    -850.650
  H      278.100     -51.844    -853.504
  H      276.335     -51.641    -853.453
  H      277.040     -53.114    -854.138
  H      283.759     -48.611    -855.909
  H      283.048     -49.561    -857.192
  H      283.723     -50.354    -855.789

 3  4  5  6  7  8  9  10  11  12  23  26  30  31  33  0
 6-311+G(2d,p)
 ****
 35  36  37  38 0
 6-311+G(2d,p)
 ****
 1  2  13  14  15  16  17  18  19  20  21  22  24  25  27  28  29 0
 3-21G
 ****
 32  34  39  40  41  42  43  44  45  46  47  48  49 0
 3-21G
 ****


