%nproc=1
%NoSave
%Mem=1900MB
#P OB98/GEN NMR

erre ene a

0 1
  C     -140.481     330.777    -324.230
  O     -141.540     330.583    -323.280
  P     -142.204     329.117    -323.227
  C     -141.771     328.868    -320.685
  O     -142.736     328.865    -321.729
  C     -142.434     329.149    -319.326
  O     -142.803     330.557    -319.211
  C     -143.701     328.330    -319.067
  O     -143.763     328.049    -317.664
  C     -144.809     329.300    -319.422
  O     -146.051     328.914    -318.848
  C     -144.211     330.602    -318.893
  N     -148.402     333.523    -318.914
  C     -148.073     332.424    -318.211
  N     -146.938     331.689    -318.281
  C     -146.078     332.225    -319.167
  C     -146.280     333.342    -319.964
  C     -147.515     334.008    -319.824
  N     -147.860     335.110    -320.555
  N     -145.189     333.552    -320.786
  C     -144.346     332.580    -320.487
  N     -144.831     331.773    -319.491
  O     -140.947     328.142    -323.360
  O     -143.205     328.875    -324.308
  H     -146.750     329.513    -319.178
  H     -140.940     327.719    -324.236
  H     -148.821     332.081    -317.495
  H     -143.391     332.414    -320.958
  H     -144.322     330.700    -317.807
  H     -144.935     329.338    -320.519
  H     -143.757     327.396    -319.645
  H     -141.690     328.939    -318.534
  H     -141.011     329.637    -320.879
  H     -148.775     335.515    -320.412
  H     -147.224     335.450    -321.266
  H     -141.238     327.915    -320.678
  P     -143.678     326.500    -317.243
  C     -142.253     327.134    -315.170
  O     -143.410     326.486    -315.663
  O     -142.290     326.008    -317.876
  O     -144.837     325.677    -317.714
  H     -142.321     325.048    -318.037
  H     -142.509     327.659    -314.246
  H     -141.847     327.860    -315.888
  H     -141.489     326.383    -314.958
  H     -140.126     331.785    -324.168
  H     -140.848     330.589    -325.217
  H     -139.679     330.102    -324.013

 3  4  5  6  7  8  9  10  11  12  22  25  29  30  31  32 0
 6-311+G(2d,p)
 ****
 33  36  37 0
 6-311+G(2d,p)
 ****
 1  2  13  14  15  16  17  18  19  20  21  23  24  26 0
 3-21G
 ****
 27  28  34  35  38  39  40  41  42  43  44  45  46  47  48 0
 3-21G
 ****


