%nproc=1
%NoSave
%Mem=1900MB
#P OB98/GEN NMR

erre ene a

0 1
  C       37.041       5.354     -18.570
  O       37.095       4.247     -19.454
  P       38.063       2.995     -19.174
  C       40.009       4.132     -20.444
  O       39.550       3.592     -19.216
  C       41.502       3.851     -20.624
  O       42.248       4.725     -19.736
  C       41.916       2.408     -20.309
  O       42.975       2.064     -21.209
  C       42.434       2.508     -18.887
  O       43.310       1.443     -18.548
  C       43.092       3.892     -18.916
  N       43.256       4.462     -17.583
  C       44.315       3.996     -16.803
  O       45.068       3.117     -17.220
  N       44.502       4.539     -15.557
  C       43.655       5.407     -15.096
  N       43.917       5.959     -13.880
  C       42.462       5.845     -15.843
  C       42.341       5.354     -17.073
  O       37.838       1.820     -20.062
  O       37.873       2.688     -17.619
  H       43.639       1.593     -17.641
  H       37.097       2.102     -17.434
  H       41.769       6.550     -15.404
  H       41.510       5.639     -17.704
  H       44.064       3.838     -19.418
  H       41.591       2.485     -18.189
  H       41.094       1.696     -20.428
  H       41.781       4.114     -21.651
  H       44.829       5.764     -13.479
  H       39.854       5.215     -20.424
  H       43.507       6.846     -13.610
  H       39.426       3.715     -21.272
  P       43.070       0.547     -21.727
  C       45.074      -0.145     -20.233
  O       43.715      -0.337     -20.559
  O       44.280       0.641     -22.781
  O       41.855      -0.003     -22.400
  H       44.183      -0.072     -23.440
  H       45.338      -0.822     -19.416
  H       45.247       0.882     -19.901
  H       45.710      -0.370     -21.093
  H       36.338       6.071     -18.939
  H       38.009       5.805     -18.503
  H       36.735       5.021     -17.600

 3  4  5  6  7  8  9  10  11  12  13  23  27  28  29  30  32 0
 6-311+G(2d,p)
 ****
 34  35 0
 6-311+G(2d,p)
 ****
 1  2  14  15  16  17  18  19  20  21  22  24  25  26 0
 3-21G
 ****
 31  33  36  37  38  39  40  41  42  43  44  45  46 0
 3-21G
 ****


