%nproc=1
%NoSave
%Mem=1900MB
#P OB98/GEN NMR

erre ene a

0 1
  C     -451.155    -541.386    -383.914
  O     -450.203    -540.346    -383.790
  H     -452.033    -540.997    -384.437
  H     -451.461    -541.738    -382.927
  H     -450.744    -542.222    -384.491
  P     -448.744    -540.691    -383.226
  C     -447.176    -539.098    -384.519
  O     -447.884    -539.345    -383.312
  C     -446.864    -537.608    -384.673
  O     -448.092    -536.902    -385.031
  C     -446.313    -536.939    -383.384
  O     -445.446    -535.878    -383.799
  C     -447.594    -536.404    -382.772
  O     -447.364    -535.512    -381.715
  C     -448.275    -535.855    -384.042
  N     -449.686    -535.515    -383.897
  C     -450.004    -534.345    -383.217
  O     -449.166    -533.575    -382.727
  N     -451.338    -534.064    -383.096
  C     -452.356    -534.811    -383.602
  O     -453.543    -534.493    -383.493
  C     -451.964    -536.048    -384.311
  C     -450.667    -536.328    -384.434
  O     -448.093    -541.902    -383.810
  O     -448.989    -540.860    -381.647
  H     -449.015    -541.803    -381.420
  H     -448.222    -535.134    -381.419
  H     -451.576    -533.218    -382.605
  H     -452.747    -536.667    -384.721
  H     -450.342    -537.223    -384.956
  H     -447.723    -534.981    -384.405
  H     -448.179    -537.237    -382.348
  H     -445.760    -537.638    -382.747
  H     -446.163    -537.478    -385.510
  H     -447.808    -539.427    -385.360
  H     -446.250    -539.680    -384.526
  P     -443.859    -536.020    -383.904
  C     -443.254    -534.650    -386.011
  O     -443.269    -534.687    -384.590
  O     -443.397    -537.287    -384.564
  O     -443.329    -535.938    -382.383
  H     -442.474    -536.413    -382.317
  H     -442.842    -533.719    -386.339
  H     -444.253    -534.748    -386.381
  H     -442.656    -535.456    -386.382

 6  7  8  9  10  11  12  13  14  15  16  27  31  32  33  34  35 0
 6-311+G(2d,p)
 ****
 36  37 0
 6-311+G(2d,p)
 ****
 1  2  3  4  5  17  18  19  20  21  22  23  24  25 0
 3-21G
 ****
 26  28  29  30  38  39  40  41  42  43  44  45 0
 3-21G
 ****


