%nproc=1
%NoSave
%Mem=1900MB
#P OB98/GEN NMR

erre ene a

0 1
  C      565.755      58.675     191.241
  O      566.359      57.408     191.387
  P      565.613      56.028     191.090
  C      564.599      55.720     193.487
  O      564.362      55.897     192.093
  C      563.305      55.331     194.210
  O      563.554      55.355     195.642
  C      562.178      56.351     193.946
  O      560.895      55.768     193.726
  C      562.307      57.320     195.113
  O      561.145      58.085     195.355
  C      562.741      56.384     196.242
  N      562.732      59.820     199.996
  C      561.662      59.299     199.290
  N      560.471      59.911     199.483
  N      561.779      58.299     198.439
  C      563.048      57.873     198.267
  C      564.183      58.306     198.910
  C      564.044      59.389     199.872
  O      564.978      59.950     200.436
  N      565.309      57.698     198.437
  C      564.861      56.908     197.470
  N      563.498      57.012     197.312
  O      566.482      54.828     190.891
  O      564.886      56.349     189.688
  H      561.288      58.597     196.163
  H      564.875      55.515     189.175
  H      562.596      60.642     200.571
  H      565.475      56.274     196.846
  H      561.885      55.906     196.721
  H      563.109      58.023     194.867
  H      560.389      60.758     200.011
  H      562.366      56.898     193.010
  H      559.739      59.713     198.793
  H      563.023      54.313     193.935
  H      564.974      56.676     193.859
  H      565.371      54.968     193.651
  P      559.951      55.885     192.450
  C      558.671      57.892     193.401
  O      559.442      57.406     192.326
  O      558.613      55.096     192.857
  O      560.524      55.319     191.189
  H      558.287      54.597     192.085
  H      558.169      58.814     193.079
  H      559.316      58.131     194.249
  H      557.920      57.161     193.700
  H      566.459      59.438     191.500
  H      564.904      58.741     191.886
  H      565.444      58.807     190.226

 3  4  5  6  7  8  9  10  11  12  23  26  30  31 0
 6-311+G(2d,p)
 ****
 33  35  36  37  38 0
 6-311+G(2d,p)
 ****
 1  2  13  14  15  16  17  18  19  20  21  22  24  25 0
 3-21G
 ****
 27  28  29  32  34  39  40  41  42  43  44  45  46  47  48  49 0
 3-21G
 ****


