%nproc=1
%NoSave
%Mem=1900MB
#P OB98/GEN NMR

erre ene a

0 1
  C      -42.901       9.249      84.388
  O      -43.906       9.660      83.484
  P      -43.541      10.144      82.004
  C      -42.419      12.297      82.823
  O      -43.446      11.744      82.012
  C      -42.172      13.767      82.483
  O      -41.254      14.337      83.452
  C      -41.582      13.997      81.084
  O      -42.184      15.186      80.561
  C      -40.109      14.223      81.367
  O      -39.460      14.934      80.322
  C      -40.187      14.959      82.709
  N      -38.931      14.913      83.443
  C      -38.284      16.130      83.665
  O      -38.706      17.161      83.138
  N      -37.169      16.142      84.465
  C      -36.643      15.019      84.845
  N      -35.580      15.077      85.693
  C      -37.162      13.704      84.417
  C      -38.320      13.722      83.762
  O      -44.403       9.579      80.924
  O      -42.015       9.694      81.808
  H      -41.939       9.166      80.988
  H      -38.626      15.316      80.670
  H      -36.619      12.801      84.654
  H      -38.797      12.808      83.429
  H      -40.468      16.010      82.557
  H      -39.605      13.258      81.487
  H      -41.773      13.164      80.402
  H      -43.123      14.303      82.582
  H      -35.277      15.993      85.997
  H      -41.502      11.732      82.644
  H      -35.312      14.288      86.281
  H      -42.680      12.185      83.881
  P      -43.049      15.072      79.213
  C      -41.022      15.973      77.866
  O      -42.407      16.063      78.129
  O      -44.392      15.856      79.625
  O      -43.390      13.693      78.752
  H      -45.129      15.532      79.075
  H      -40.750      16.760      77.160
  H      -40.783      15.004      77.418
  H      -40.444      16.109      78.784
  H      -43.351       8.966      85.317
  H      -42.218      10.056      84.554
  H      -42.373       8.414      83.978

 3  4  5  6  7  8  9  10  11  12  13  24  27  28  29  30  32 0
 6-311+G(2d,p)
 ****
 34  35 0
 6-311+G(2d,p)
 ****
 1  2  14  15  16  17  18  19  20  21  22  23  25  26 0
 3-21G
 ****
 31  33  36  37  38  39  40  41  42  43  44  45  46 0
 3-21G
 ****


