%nproc=1
%NoSave
%Mem=1900MB
#P OB98/GEN NMR

erre ene a

0 1
  C      758.613    1057.237     336.320
  O      758.802    1055.882     336.025
  P      758.399    1055.385     334.519
  C      760.924    1055.204     333.893
  O      759.661    1054.526     334.000
  C      762.042    1054.207     333.645
  O      762.380    1053.525     334.899
  C      761.741    1053.101     332.650
  O      761.907    1053.530     331.310
  C      762.791    1052.062     333.027
  O      764.080    1052.444     332.474
  C      762.834    1052.187     334.577
  N      761.943    1047.185     335.160
  C      762.769    1047.868     334.352
  N      762.958    1049.209     334.240
  C      762.102    1049.864     335.044
  C      761.163    1049.298     335.922
  C      761.104    1047.918     335.945
  N      760.249    1047.211     336.806
  N      760.462    1050.297     336.571
  C      760.996    1051.410     336.149
  N      762.004    1051.213     335.245
  O      758.471    1056.734     333.680
  O      757.081    1054.714     334.426
  H      764.117    1052.045     331.584
  H      757.906    1056.645     332.874
  H      763.409    1047.271     333.703
  H      760.713    1052.390     336.481
  H      763.842    1052.101     334.966
  H      762.554    1051.069     332.664
  H      760.745    1052.689     332.816
  H      762.941    1054.786     333.351
  H      761.108    1055.776     334.800
  H      760.402    1046.235     336.878
  H      759.760    1047.739     337.528
  H      760.848    1055.919     333.029
  P      761.339    1052.570     330.149
  C      759.332    1054.181     329.664
  O      760.533    1053.554     329.182
  O      760.184    1051.729     330.932
  O      762.368    1051.699     329.551
  H      760.045    1050.890     330.496
  H      759.098    1055.038     329.011
  H      759.509    1054.587     330.679
  H      758.526    1053.479     329.683
  H      758.913    1057.428     337.329
  H      757.579    1057.487     336.202
  H      759.202    1057.833     335.654

 3  4  5  6  7  8  9  10  11  12  22  25  29  30  31  32 0
 6-311+G(2d,p)
 ****
 33  36  37 0
 6-311+G(2d,p)
 ****
 1  2  13  14  15  16  17  18  19  20  21  23  24  26 0
 3-21G
 ****
 27  28  34  35  38  39  40  41  42  43  44  45  46  47  48 0
 3-21G
 ****


