%nproc=1
%NoSave
%Mem=1900MB
#P OB98/GEN NMR

erre ene a

0 1
  C     -279.583     -32.431      15.144
  O     -280.107     -33.693      15.503
  H     -278.499     -32.442      15.308
  H     -280.023     -31.653      15.770
  H     -279.772     -32.213      14.090
  P     -281.621     -34.040      15.105
  C     -282.322     -33.830      17.581
  O     -282.310     -34.652      16.422
  C     -282.163     -34.678      18.848
  O     -283.124     -35.775      18.795
  C     -280.759     -35.305      19.011
  O     -280.496     -35.388      20.422
  C     -280.988     -36.678      18.416
  O     -279.942     -37.567      18.731
  C     -282.372     -36.994      18.987
  N     -283.025     -38.132      18.349
  C     -282.776     -39.390      18.884
  O     -282.066     -39.591      19.865
  N     -283.380     -40.440      18.236
  C     -284.177     -40.343      17.131
  O     -284.706     -41.317      16.599
  C     -284.377     -38.990      16.596
  C     -283.803     -37.958      17.226
  O     -281.800     -34.853      13.868
  O     -282.318     -32.598      14.976
  H     -282.343     -32.339      14.034
  H     -279.683     -37.465      19.676
  H     -283.211     -41.362      18.604
  H     -284.991     -38.884      15.710
  H     -283.926     -36.942      16.856
  H     -282.315     -37.169      20.068
  H     -281.025     -36.619      17.322
  H     -279.974     -34.724      18.523
  H     -282.424     -34.066      19.720
  H     -283.275     -33.293      17.613
  H     -281.501     -33.102      17.516
  P     -280.095     -34.116      21.318
  C     -278.280     -35.123      22.848
  O     -279.606     -34.618      22.764
  O     -281.167     -33.074      21.388
  O     -278.773     -33.513      20.647
  H     -278.785     -32.548      20.727
  H     -278.076     -35.423      23.855
  H     -277.589     -34.360      22.555
  H     -278.178     -35.966      22.197

 6  7  8  9  10  11  12  13  14  15  16  27  31  32  33  34  35 0
 6-311+G(2d,p)
 ****
 36  37 0
 6-311+G(2d,p)
 ****
 1  2  3  4  5  17  18  19  20  21  22  23  24  25 0
 3-21G
 ****
 26  28  29  30  38  39  40  41  42  43  44  45 0
 3-21G
 ****


