%nproc=1
%NoSave
%Mem=1900MB
#P OB98/GEN NMR

erre ene a

0 1
  C      806.073     210.783     103.302
  O      805.468     210.780     104.580
  P      803.942     211.248     104.755
  C      802.911     208.942     105.227
  O      802.993     210.030     104.321
  C      801.485     208.772     105.741
  O      800.558     208.633     104.639
  C      801.273     207.533     106.591
  O      801.851     207.665     107.884
  C      799.753     207.421     106.586
  O      799.163     208.323     107.534
  C      799.428     207.875     105.140
  N      799.103     206.761     104.264
  C      797.742     206.599     103.947
  O      796.898     207.323     104.469
  N      797.395     205.615     103.063
  C      798.286     204.785     102.636
  N      797.892     203.863     101.713
  C      799.698     204.818     103.070
  C      800.034     205.834     103.857
  O      803.604     212.561     104.133
  O      803.734     211.299     106.347
  H      803.344     212.170     106.580
  H      798.198     208.227     107.451
  H      800.391     204.062     102.734
  H      801.060     205.956     104.212
  H      798.578     208.577     105.150
  H      799.401     206.416     106.823
  H      801.704     206.658     106.090
  H      801.219     209.678     106.305
  H      796.920     203.876     101.425
  H      803.582     209.138     106.074
  H      798.548     203.395     101.080
  H      803.249     208.021     104.729
  P      802.698     206.418     108.432
  C      805.020     207.425     107.898
  O      804.087     206.391     107.640
  O      801.910     205.158     107.865
  O      802.815     206.362     109.919
  H      801.923     204.433     108.523
  H      806.012     207.083     107.564
  H      805.067     207.665     108.962
  H      804.753     208.317     107.323
  H      807.084     210.442     103.385
  H      806.063     211.777     102.905
  H      805.530     210.133     102.649

 3  4  5  6  7  8  9  10  11  12  13  24  27  28  29  30  32 0
 6-311+G(2d,p)
 ****
 34  35 0
 6-311+G(2d,p)
 ****
 1  2  14  15  16  17  18  19  20  21  22  23  25  26 0
 3-21G
 ****
 31  33  36  37  38  39  40  41  42  43  44  45  46 0
 3-21G
 ****


