%nproc=1
%NoSave
%Mem=1900MB
#P OB98/GEN NMR

erre ene a

0 1
  C        7.904     320.828      38.612
  O        7.582     321.020      39.977
  H        8.366     319.844      38.495
  H        8.614     321.591      38.283
  H        6.999     320.873      37.998
  P        6.872     322.409      40.360
  C        7.155     324.884      39.609
  O        7.676     323.558      39.580
  C        8.284     325.881      39.362
  O        9.161     325.922      40.512
  C        9.179     325.522      38.182
  O        8.593     325.859      36.933
  C       10.428     326.337      38.502
  O       10.293     327.692      38.066
  C       10.485     326.271      40.031
  N       15.217     325.690      41.854
  C       14.494     326.792      41.554
  N       13.229     326.863      41.089
  C       12.705     325.631      40.957
  C       13.322     324.418      41.224
  C       14.643     324.472      41.697
  N       15.389     323.353      41.977
  N       12.474     323.365      40.928
  C       11.364     323.934      40.496
  N       11.455     325.300      40.502
  O        7.288     322.617      41.891
  O        5.388     322.432      40.179
  H       11.059     328.175      38.429
  H        6.551     322.350      42.471
  H       14.999     327.741      41.702
  H       10.476     323.406      40.168
  H       10.746     327.237      40.479
  H       11.304     325.910      38.011
  H        9.432     324.454      38.214
  H        7.847     326.882      39.230
  H        6.709     325.079      40.589
  H        6.381     324.977      38.840
  H       16.350     323.467      42.246
  H       15.010     322.439      41.756
  P        8.614     324.750      35.779
  C       10.510     323.303      34.720
  O       10.149     324.503      35.381
  O        8.007     325.509      34.508
  O        7.857     323.504      36.098
  H        7.477     324.887      33.972
  H       11.563     323.303      34.531
  H        9.981     323.234      33.792
  H       10.258     322.466      35.337

 6  7  8  9  10  11  12  13  14  15  25  28  32  33  34  35 0
 6-311+G(2d,p)
 ****
 36  37  40 0
 6-311+G(2d,p)
 ****
 1  2  3  4  5  16  17  18  19  20  21  22  23  24 0
 3-21G
 ****
 26  27  29  30  31  38  39 41  42  43  44  45  46  47  48 0
 3-21G
 ****


