%nproc=1
%NoSave
%Mem=1900MB
#P OB98/GEN NMR

erre ene a

0 1
  C       11.625      42.297      39.763
  O       12.173      41.068      40.250
  P       13.160      41.168      41.509
  C       15.616      41.902      41.925
  O       14.619      41.560      40.972
  C       16.996      41.891      41.267
  O       17.503      40.548      41.110
  C       17.003      42.489      39.866
  O       16.922      43.903      39.914
  C       18.324      41.947      39.331
  O       19.426      42.726      39.828
  C       18.366      40.540      39.947
  N       19.879      37.252      36.331
  C       20.555      38.167      37.059
  N       20.079      39.007      38.002
  C       18.759      38.828      38.175
  C       17.938      37.932      37.510
  C       18.549      37.117      36.542
  N       17.857      36.195      35.790
  N       16.637      38.040      37.956
  C       16.669      39.001      38.857
  N       17.931      39.500      39.033
  O       13.321      39.646      41.974
  O       12.638      42.030      42.611
  H       20.244      42.218      39.653
  H       12.845      39.502      42.813
  H       21.620      38.236      36.857
  H       15.809      39.368      39.405
  H       19.371      40.267      40.290
  H       18.382      41.959      38.239
  H       16.168      42.087      39.279
  H       17.686      42.450      41.913
  H       15.600      41.198      42.760
  H       18.356      35.707      35.062
  H       16.852      36.148      35.877
  H       15.383      42.888      42.340
  P       15.539      44.586      39.476
  C       14.770      45.764      37.328
  O       15.791      45.002      37.944
  O       15.618      45.989      40.236
  O       14.321      43.768      39.735
  H       16.493      46.405      40.137
  H       15.081      46.005      36.308
  H       14.607      46.694      37.879
  H       13.843      45.186      37.287
  H       10.987      42.097      38.927
  H       12.419      42.946      39.458
  H       11.058      42.767      40.539

 3  4  5  6  7  8  9  10  11  12  22  25  29  30  31  32 0
 6-311+G(2d,p)
 ****
 33  36  37 0
 6-311+G(2d,p)
 ****
 1  2  13  14  15  16  17  18  19  20  21  23  24  26 0
 3-21G
 ****
 27  28  34  35  38  39  40  41  42  43  44  45  46  47  48 0
 3-21G
 ****


