%nproc=1
%NoSave
%Mem=1900MB
#P OB98/GEN NMR

erre ene a

0 1
  C     -937.557    -697.378     331.028
  O     -937.294    -698.388     332.002
  P     -938.469    -698.783     333.038
  C     -938.873    -701.326     332.948
  O     -939.259    -700.043     332.464
  C     -939.803    -702.426     332.405
  O     -941.084    -702.370     333.074
  C     -940.063    -702.298     330.894
  O     -939.830    -703.521     330.177
  C     -941.483    -701.745     330.821
  O     -942.129    -702.034     329.581
  C     -942.131    -702.317     332.088
  N     -943.274    -701.504     332.520
  C     -944.487    -702.164     332.647
  O     -944.660    -703.347     332.336
  N     -945.549    -701.401     333.064
  C     -945.510    -700.060     333.304
  O     -946.512    -699.422     333.648
  C     -944.224    -699.398     333.102
  C     -943.176    -700.152     332.722
  O     -939.320    -697.666     333.516
  O     -937.643    -699.433     334.259
  H     -942.158    -703.008     329.462
  H     -938.075    -699.146     335.090
  H     -946.440    -701.877     333.183
  H     -944.161    -698.326     333.247
  H     -942.207    -699.686     332.543
  H     -942.497    -703.329     331.918
  H     -941.420    -700.659     330.910
  H     -939.373    -701.597     330.426
  H     -939.340    -703.398     332.630
  H     -938.919    -701.340     334.030
  H     -937.825    -701.529     332.681
  P     -938.627    -703.757     329.152
  C     -937.746    -706.047     329.940
  O     -937.520    -704.661     329.869
  O     -938.107    -702.523     328.478
  O     -939.272    -704.734     328.053
  H     -938.967    -704.485     327.166
  H     -937.130    -706.456     330.754
  H     -937.446    -706.547     329.015
  H     -938.796    -706.283     330.169
  H     -936.687    -697.232     330.422
  H     -937.805    -696.462     331.522
  H     -938.375    -697.683     330.410

 3  4  5  6  7  8  9  10  11  12  13  23  28  29  30  31  32 0
 6-311+G(2d,p)
 ****
 33  34 0
 6-311+G(2d,p)
 ****
 1  2  14  15  16  17  18  19  20  21  22  24  25  26  27 0
 3-21G
 ****
 35  36  37  38  39  40  41  42  43  44  45 0
 3-21G
 ****


