%nproc=1
%NoSave
%Mem=1900MB
#P OB98/GEN NMR

erre ene a

0 1
  C       22.739      99.114     -45.166
  O       24.093      99.504     -45.002
  P       24.619      99.774     -43.509
  C       23.797     102.222     -43.672
  O       23.758     101.004     -42.938
  C       24.118     103.400     -42.754
  O       23.114     103.462     -41.702
  C       25.496     103.313     -42.074
  O       26.128     104.602     -42.119
  C       25.160     103.016     -40.623
  O       26.183     103.455     -39.733
  C       23.833     103.763     -40.487
  N       20.134     105.310     -37.413
  C       20.509     105.789     -38.649
  N       19.835     106.870     -39.108
  N       21.459     105.262     -39.379
  C       22.022     104.165     -38.810
  C       21.734     103.590     -37.594
  C       20.722     104.224     -36.771
  O       20.407     103.899     -35.631
  N       22.509     102.479     -37.371
  C       23.267     102.387     -38.445
  N       23.043     103.412     -39.327
  O       26.070     100.403     -43.753
  O       24.691      98.571     -42.631
  H       26.262     104.423     -39.844
  H       26.741      99.878     -43.275
  H       19.411     105.764     -36.882
  H       24.011     101.614     -38.615
  H       24.009     104.848     -40.456
  H       25.027     101.935     -40.498
  H       19.071     107.302     -38.616
  H       26.163     102.558     -42.506
  H       20.081     107.220     -40.026
  H       24.031     104.328     -43.333
  H       22.823     102.388     -44.142
  H       24.559     102.138     -44.456
  P       27.401     104.729     -43.089
  C       29.066     104.760     -41.084
  O       28.637     104.117     -42.268
  O       27.693     106.303     -43.112
  O       27.179     104.169     -44.457
  H       28.170     106.551     -43.927
  H       28.373     105.545     -40.764
  H       30.048     105.205     -41.255
  H       29.144     104.014     -40.286
  H       22.533      98.970     -46.206
  H       22.098      99.878     -44.777
  H       22.565      98.200     -44.638

 3  4  5  6  7  8  9  10  11  12  23  26  30  31  33  0
 6-311+G(2d,p)
 ****
 35  36  37  38 0
 6-311+G(2d,p)
 ****
 1  2  13  14  15  16  17  18  19  20  21  22  24  25  27  28  29 0
 3-21G
 ****
 32  34  39  40  41  42  43  44  45  46  47  48  49 0
 3-21G
 ****


