%nproc=1
%NoSave
%Mem=1900MB
#P OB98/GEN NMR

erre ene a

0 1
  C      683.229    -694.956     118.696
  O      682.784    -693.677     119.144
  P      683.187    -693.298     120.664
  C      684.117    -690.884     120.339
  O      684.404    -692.256     120.616
  C      685.055    -690.361     119.228
  O      684.885    -691.039     117.976
  C      684.856    -688.848     118.940
  O      685.504    -688.071     119.925
  C      685.501    -688.774     117.535
  O      686.920    -688.595     117.642
  C      685.165    -690.097     116.922
  N      682.967    -687.642     113.060
  C      684.045    -687.274     113.822
  N      684.635    -686.095     113.504
  N      684.501    -687.993     114.812
  C      683.812    -689.129     115.003
  C      682.742    -689.616     114.279
  C      682.263    -688.825     113.166
  O      681.320    -689.097     112.453
  N      682.363    -690.868     114.723
  C      683.094    -691.080     115.823
  N      684.047    -690.090     115.987
  O      683.813    -694.648     121.237
  O      682.009    -692.844     121.483
  H      687.114    -687.756     118.086
  H      683.219    -695.038     121.907
  H      682.661    -687.043     112.299
  H      682.977    -691.902     116.465
  H      686.031    -690.505     116.352
  H      685.116    -687.887     117.020
  H      684.353    -685.484     112.790
  H      683.789    -688.631     118.868
  H      685.459    -685.795     114.086
  H      686.086    -690.541     119.562
  H      684.236    -690.279     121.237
  H      683.059    -690.809     120.009
  P      684.696    -687.726     121.262
  C      686.186    -689.040     122.960
  O      684.953    -688.937     122.328
  O      683.166    -687.891     120.816
  O      684.951    -686.346     121.782
  H      682.649    -687.146     121.122
  H      686.036    -689.474     123.923
  H      686.653    -688.024     123.114
  H      686.828    -689.655     122.348
  H      682.913    -695.110     117.685
  H      682.811    -695.718     119.320
  H      684.297    -695.000     118.747

 3  4  5  6  7  8  9  10  11  12  23  26  30  31 0
 6-311+G(2d,p)
 ****
 33  35  36  37  38 0
 6-311+G(2d,p)
 ****
 1  2  13  14  15  16  17  18  19  20  21  22  24  25 0
 3-21G
 ****
 27  28  29  32  34  39  40  41  42  43  44  45  46  47  48  49 0
 3-21G
 ****


