%nproc=1
%NoSave
%Mem=1900MB
#P OB98/GEN NMR

erre ene a

0 1
  C       16.307     127.916     -18.967
  O       17.331     128.142     -18.014
  P       18.030     129.588     -18.013
  C       16.687     130.567     -16.009
  O       17.947     130.143     -16.513
  C       16.607     130.310     -14.507
  O       16.753     128.902     -14.237
  C       17.692     130.995     -13.688
  O       17.426     132.380     -13.541
  C       17.616     130.191     -12.395
  O       16.506     130.638     -11.600
  C       17.352     128.769     -12.919
  N       20.696     125.865     -10.351
  C       19.605     126.554      -9.950
  N       18.778     127.322     -10.688
  C       19.166     127.336     -11.973
  C       20.266     126.703     -12.525
  C       21.053     125.934     -11.655
  N       22.168     125.237     -12.068
  N       20.358     126.968     -13.875
  C       19.323     127.739     -14.136
  N       18.565     127.978     -13.023
  O       16.981     130.500     -18.803
  O       19.390     129.630     -18.636
  H       16.672     131.574     -11.370
  H       17.439     131.186     -19.326
  H       19.362     126.477      -8.893
  H       19.081     128.141     -15.110
  H       16.648     128.213     -12.290
  H       18.517     130.279     -11.780
  H       18.672     130.856     -14.159
  H       15.613     130.624     -14.162
  H       15.888     130.008     -16.507
  H       22.757     124.835     -11.356
  H       22.511     125.404     -13.005
  H       16.555     131.630     -16.232
  P       18.567     133.281     -12.862
  C       19.655     133.838     -15.121
  O       18.945     134.345     -14.005
  O       19.818     132.288     -12.882
  O       18.209     133.853     -11.534
  H       19.942     131.874     -13.753
  H       19.800     134.648     -15.840
  H       19.087     133.035     -15.599
  H       20.635     133.467     -14.805
  H       15.931     126.920     -18.858
  H       16.703     128.041     -19.953
  H       15.513     128.616     -18.810

 3  4  5  6  7  8  9  10  11  12  22  25  29  30  31  32 0
 6-311+G(2d,p)
 ****
 33  36  37 0
 6-311+G(2d,p)
 ****
 1  2  13  14  15  16  17  18  19  20  21  23  24  26 0
 3-21G
 ****
 27  28  34  35  38  39  40  41  42  43  44  45  46  47  48 0
 3-21G
 ****


