%nproc=1
%NoSave
%Mem=1900MB
#P OB98/GEN NMR

erre ene a

0 1
  C      210.195      67.989     344.170
  O      210.103      66.675     343.661
  H      211.043      68.488     343.696
  H      210.361      67.972     345.249
  H      209.287      68.556     343.941
  P      208.929      65.723     344.205
  C      210.416      63.965     345.402
  O      209.539      65.074     345.544
  C      211.232      63.766     346.673
  O      212.222      64.806     346.833
  C      210.423      63.808     347.965
  O      209.630      62.654     348.188
  C      211.547      63.939     348.975
  O      212.200      62.666     349.142
  C      212.470      64.952     348.259
  N      212.230      66.334     348.681
  C      212.978      66.798     349.770
  O      213.788      66.061     350.334
  N      212.770      68.082     350.217
  C      211.874      68.829     349.645
  N      211.706      70.086     350.135
  C      211.050      68.372     348.510
  C      211.274      67.134     348.085
  O      208.365      64.749     343.220
  O      207.839      66.733     344.805
  H      213.073      62.844     349.537
  H      207.085      66.195     345.144
  H      210.295      69.024     348.090
  H      210.703      66.724     347.256
  H      213.528      64.710     348.430
  H      211.208      64.262     349.963
  H      209.806      64.718     348.014
  H      211.775      62.815     346.571
  H      212.283      70.373     350.914
  H      211.069      64.157     344.541
  H      210.978      70.711     349.804
  H      209.838      63.055     345.212
  P      208.264      62.854     349.009
  C      209.024      61.260     350.939
  O      208.620      62.563     350.545
  O      207.383      61.592     348.564
  O      207.562      64.155     348.774
  H      206.751      61.846     347.868
  H      209.220      61.250     351.991
  H      209.912      60.986     350.408
  H      208.245      60.562     350.714

 6  7  8  9  10  11  12  13  14  15  16  26  30  31  32  33  35 0
 6-311+G(2d,p)
 ****
 37  38 0
 6-311+G(2d,p)
 ****
 1  2  3  4  5  17  18  19  20  21  22  23  24  25 0
 3-21G
 ****
 27  28  29  34  36  39  40  41  42  43  44  45  46 0
 3-21G
 ****


