%nproc=1
%NoSave
%Mem=1900MB
#P OB98/GEN NMR

erre ene a

0 1
  C       46.629      14.403     144.056
  O       47.378      13.192     144.033
  P       48.976      13.309     144.053
  C       49.489      11.316     145.679
  O       49.569      11.854     144.372
  C       48.104      10.692     145.935
  O       47.901       9.619     144.980
  C       47.921      10.053     147.307
  O       46.522       9.908     147.561
  C       48.537       8.688     147.096
  O       48.125       7.763     148.100
  C       48.106       8.349     145.652
  N       49.097       7.537     144.913
  C       48.965       6.151     144.930
  O       48.071       5.555     145.527
  N       49.928       5.445     144.263
  C       50.967       5.976     143.559
  O       51.851       5.296     143.054
  C       50.980       7.440     143.456
  C       50.070       8.142     144.132
  O       49.275      14.155     145.374
  O       49.545      13.950     142.832
  H       48.130       8.255     148.953
  H       49.528      15.068     145.140
  H       49.883       4.438     144.324
  H       51.751       7.898     142.848
  H       50.077       9.229     144.082
  H       47.160       7.792     145.643
  H       49.628       8.764     147.153
  H       48.396      10.596     148.128
  H       47.331      11.446     145.752
  H       49.696      12.094     146.415
  H       50.262      10.548     145.808
  P       45.876      10.787     148.739
  C       43.853      11.803     147.521
  O       44.299      10.835     148.451
  O       46.526      12.102     149.005
  O       45.970       9.807     150.006
  H       45.888      10.327     150.828
  H       42.950      11.433     147.032
  H       44.612      12.009     146.761
  H       43.617      12.729     148.053
  H       45.583      14.176     144.039
  H       46.880      14.994     143.200
  H       46.861      14.949     144.946

 3  4  5  6  7  8  9  10  11  12  13  23  28  29  30  31  32 0
 6-311+G(2d,p)
 ****
 33  34 0
 6-311+G(2d,p)
 ****
 1  2  14  15  16  17  18  19  20  21  22  24  25  26  27 0
 3-21G
 ****
 35  36  37  38  39  40  41  42  43  44  45 0
 3-21G
 ****


