%nproc=1
%NoSave
%Mem=1900MB
#P OB98/GEN NMR

erre ene a

0 1
  C      410.110    -889.860     299.953
  O      411.037    -890.750     299.360
  H      410.651    -889.220     300.649
  H      409.351    -890.410     300.499
  H      409.650    -889.230     299.188
  P      410.491    -891.860     298.332
  C      409.487    -893.490     300.064
  O      409.224    -892.550     299.025
  C      408.261    -894.360     300.325
  O      407.944    -895.060     299.083
  C      408.484    -895.420     301.424
  O      407.497    -895.380     302.446
  C      408.670    -896.710     300.636
  O      408.332    -897.880     301.358
  C      407.828    -896.470     299.375
  N      408.253    -897.270     298.224
  C      407.559    -898.440     297.970
  O      406.602    -898.850     298.616
  N      407.993    -899.170     296.881
  C      409.044    -898.850     296.066
  O      409.390    -899.530     295.115
  C      409.758    -897.600     296.411
  C      409.337    -896.880     297.454
  O      411.517    -892.800     297.817
  O      409.839    -891.000     297.156
  H      408.357    -898.620     300.724
  H      410.426    -891.020     296.378
  H      407.486    -900.000     296.679
  H      410.602    -897.320     295.789
  H      409.853    -895.960     297.734
  H      406.784    -896.700     299.561
  H      409.723    -896.800     300.353
  H      409.415    -895.190     301.968
  H      407.401    -893.720     300.556
  H      409.757    -892.930     300.969
  H      410.333    -894.130     299.777
  P      407.602    -894.550     303.803
  C      408.758    -896.360     305.332
  O      408.848    -895.130     304.639
  O      406.323    -894.350     304.546
  O      408.123    -893.100     303.327
  H      407.732    -892.460     303.956
  H      409.688    -896.563     305.820
  H      408.540    -897.145     304.638
  H      407.978    -896.302     306.062

 6  7  8  9  10  11  12  13  14  15  16  26  31  32  33  34  35 0
 6-311+G(2d,p)
 ****
 36  37 0
 6-311+G(2d,p)
 ****
 1  2  3  4  5  17  18  19  20  21  22  23  24  25 0
 3-21G
 ****
 27  28  29  30  38  39  40  41  42  43  44  45 0
 3-21G
 ****


