%nproc=1
%NoSave
%Mem=1900MB
#P OB98/GEN NMR

erre ene a

0 1
  C     -342.857    1763.172    -176.310
  O     -341.461    1762.970    -176.401
  P     -340.765    1762.972    -177.873
  C     -339.330    1764.919    -176.987
  O     -340.048    1764.387    -178.087
  C     -338.492    1766.128    -177.378
  O     -337.599    1765.809    -178.499
  C     -339.257    1767.352    -177.748
  O     -338.528    1768.517    -177.276
  C     -339.261    1767.315    -179.249
  O     -339.566    1768.564    -179.844
  C     -337.825    1766.799    -179.495
  N     -337.647    1766.253    -180.854
  C     -337.536    1767.151    -181.887
  O     -337.695    1768.353    -181.664
  N     -337.234    1766.681    -183.176
  C     -337.245    1765.376    -183.365
  N     -336.984    1764.937    -184.626
  C     -337.542    1764.391    -182.297
  C     -337.718    1764.891    -181.070
  O     -341.663    1762.508    -178.973
  O     -339.519    1761.966    -177.671
  H     -339.016    1769.283    -179.393
  H     -339.384    1761.494    -178.507
  H     -337.637    1763.337    -182.523
  H     -337.914    1764.254    -180.238
  H     -337.095    1767.610    -179.352
  H     -339.992    1766.592    -179.628
  H     -340.279    1767.408    -177.327
  H     -337.795    1766.361    -176.521
  H     -336.813    1765.637    -185.347
  H     -338.692    1764.110    -176.567
  H     -336.891    1763.930    -184.857
  H     -340.025    1765.155    -176.190
  P     -339.317    1769.607    -176.398
  C     -338.165    1769.100    -174.140
  O     -339.363    1769.100    -174.882
  O     -340.841    1769.401    -176.880
  O     -338.921    1771.054    -176.646
  H     -341.327    1770.242    -176.764
  H     -338.442    1768.996    -173.063
  H     -337.600    1770.019    -174.272
  H     -337.542    1768.258    -174.388
  H     -343.155    1763.143    -175.283
  H     -343.365    1762.401    -176.851
  H     -343.107    1764.125    -176.727

 3  4  5  6  7  8  9  10  11  12  13  23  27  28  29  30  32 0
 6-311+G(2d,p)
 ****
 34  35 0
 6-311+G(2d,p)
 ****
 1  2  14  15  16  17  18  19  20  21  22  24  25  26 0
 3-21G
 ****
 31  33  36  37  38  39  40  41  42  43  44  45  46 0
 3-21G
 ****


