%nproc=1
%NoSave
%Mem=1900MB
#P OB98/GEN NMR

erre ene a

0 1
  C      899.617    -219.006    -257.899
  O      900.536    -219.752    -258.724
  P      900.962    -221.257    -258.396
  C      903.375    -220.529    -257.824
  O      902.224    -221.253    -257.397
  C      904.484    -220.556    -256.777
  O      904.769    -221.904    -256.355
  C      905.824    -219.989    -257.226
  O      905.785    -218.566    -257.263
  C      906.754    -220.575    -256.180
  O      906.752    -219.792    -254.972
  C      906.142    -221.962    -255.936
  N      906.863    -223.024    -256.627
  C      907.867    -223.680    -255.904
  O      908.135    -223.312    -254.760
  N      908.546    -224.716    -256.500
  C      908.294    -225.011    -257.745
  N      908.992    -226.043    -258.271
  C      907.311    -224.287    -258.569
  C      906.639    -223.318    -257.954
  O      901.152    -222.104    -259.611
  O      899.784    -221.842    -257.482
  H      906.888    -218.859    -255.261
  H      899.693    -222.799    -257.653
  H      907.163    -224.553    -259.599
  H      905.888    -222.746    -258.495
  H      906.121    -222.192    -254.859
  H      907.795    -220.606    -256.530
  H      906.075    -220.392    -258.218
  H      904.107    -220.000    -255.888
  H      909.663    -226.528    -257.675
  H      903.085    -219.492    -258.011
  H      908.879    -226.374    -259.224
  H      903.737    -220.964    -258.769
  P      905.567    -217.813    -258.669
  C      908.097    -217.848    -259.081
  O      906.815    -218.159    -259.593
  O      905.224    -216.369    -258.566
  O      904.367    -218.637    -259.347
  H      903.851    -218.030    -259.903
  H      908.836    -218.476    -259.583
  H      908.144    -218.052    -258.002
  H      908.309    -216.804    -259.273
  H      899.482    -218.028    -258.310
  H      900.012    -218.925    -256.908
  H      898.675    -219.512    -257.867

 3  4  5  6  7  8  9  10  11  12  13  23  27  28  29  30  32 0
 6-311+G(2d,p)
 ****
 34  35 0
 6-311+G(2d,p)
 ****
 1  2  14  15  16  17  18  19  20  21  22  24  25  26 0
 3-21G
 ****
 31  33  36  37  38  39  40  41  42  43  44  45  46 0
 3-21G
 ****


