%nproc=1
%NoSave
%Mem=1900MB
#P OB98/GEN NMR

erre ene a

0 1
  C     -927.720    -894.670    -875.351
  O     -928.750    -894.820    -876.306
  P     -929.611    -893.540    -876.751
  C     -927.923    -892.390    -878.383
  O     -929.184    -893.060    -878.220
  C     -927.171    -892.930    -879.591
  O     -926.597    -894.250    -879.300
  C     -928.069    -893.140    -880.796
  O     -928.567    -891.970    -881.414
  C     -927.241    -894.100    -881.654
  O     -926.241    -893.400    -882.422
  C     -926.549    -894.980    -880.573
  N     -927.168    -896.290    -880.439
  C     -926.545    -897.320    -881.171
  O     -925.609    -897.110    -881.927
  N     -927.147    -898.570    -881.024
  C     -928.247    -898.860    -880.280
  O     -928.720    -900.000    -880.207
  C     -928.851    -897.740    -879.524
  C     -928.301    -896.530    -879.657
  O     -929.697    -892.440    -875.761
  O     -931.059    -894.170    -877.017
  H     -925.527    -894.050    -882.587
  H     -931.732    -893.550    -876.668
  H     -926.708    -899.330    -881.544
  H     -929.714    -897.940    -878.946
  H     -928.735    -895.690    -879.109
  H     -925.498    -895.110    -880.816
  H     -927.871    -894.670    -882.356
  H     -928.945    -893.690    -880.468
  H     -926.323    -892.280    -879.795
  H     -927.331    -892.540    -877.465
  H     -928.111    -891.310    -878.466
  P     -930.061    -891.810    -881.880
  C     -930.706    -890.230    -879.926
  O     -930.651    -890.410    -881.304
  O     -930.970    -892.960    -881.826
  O     -929.876    -891.430    -883.464
  H     -930.641    -891.800    -883.943
  H     -931.085    -889.270    -879.695
  H     -929.703    -890.310    -879.465
  H     -931.344    -891.030    -879.467
  H     -927.255    -895.618    -875.176
  H     -928.133    -894.300    -874.436
  H     -926.991    -893.978    -875.718

 3  4  5  6  7  8  9  10  11  12  13  23  28  29  30  31  32 0
 6-311+G(2d,p)
 ****
 33  34 0
 6-311+G(2d,p)
 ****
 1  2  14  15  16  17  18  19  20  21  22  24  25  26  27 0
 3-21G
 ****
 35  36  37  38  39  40  41  42  43  44  45 0
 3-21G
 ****


