%nproc=1
%NoSave
%Mem=1900MB
#P OB98/GEN NMR

erre ene a

0 1
  C      121.779     -32.693     -42.794
  O      120.495     -33.238     -42.465
  P      119.258     -32.884     -43.421
  C      117.567     -31.616     -41.901
  O      117.921     -32.836     -42.534
  C      116.832     -31.888     -40.585
  O      117.740     -32.285     -39.538
  C      116.091     -30.677     -40.037
  O      114.828     -30.512     -40.663
  C      115.907     -31.077     -38.581
  O      114.798     -31.989     -38.461
  C      117.224     -31.801     -38.276
  N      119.540     -30.583     -33.873
  C      118.546     -31.453     -34.158
  N      117.970     -31.709     -35.352
  C      118.532     -30.966     -36.319
  C      119.553     -30.038     -36.179
  C      120.066     -29.855     -34.886
  N      121.079     -28.968     -34.602
  N      119.861     -29.463     -37.395
  C      119.052     -30.047     -38.256
  N      118.224     -30.955     -37.652
  O      119.076     -34.218     -44.286
  O      119.489     -31.693     -44.291
  H      114.160     -31.754     -39.161
  H      118.782     -33.989     -45.188
  H      118.161     -32.020     -33.315
  H      119.029     -29.846     -39.318
  H      117.080     -32.670     -37.623
  H      115.689     -30.224     -37.934
  H      116.711     -29.774     -40.105
  H      116.122     -32.708     -40.757
  H      116.937     -31.018     -42.565
  H      121.414     -28.911     -33.655
  H      121.490     -28.438     -35.357
  H      118.474     -31.028     -41.728
  P      114.298     -29.011     -40.862
  C      111.998     -29.860     -39.999
  O      112.704     -29.126     -40.980
  O      114.775     -28.654     -42.348
  O      114.814     -28.036     -39.857
  H      114.946     -27.695     -42.422
  H      110.941     -29.588     -40.050
  H      112.369     -29.637     -38.994
  H      112.098     -30.932     -40.197
  H      122.499     -33.014     -42.071
  H      121.724     -31.624     -42.792
  H      122.073     -33.033     -43.765

 3  4  5  6  7  8  9  10  11  12  22  25  29  30  31  32 0
 6-311+G(2d,p)
 ****
 33  36  37 0
 6-311+G(2d,p)
 ****
 1  2  13  14  15  16  17  18  19  20  21  23  24  26 0
 3-21G
 ****
 27  28  34  35  38  39  40  41  42  43  44  45  46  47  48 0
 3-21G
 ****


