%nproc=1
%NoSave
%Mem=1900MB
#P OB98/GEN NMR

erre ene a

0 1
  C     -100.440    -162.127     119.070
  O     -101.663    -161.895     118.398
  H     -100.654    -162.417     120.102
  H      -99.841    -161.213     119.078
  H      -99.882    -162.935     118.585
  P     -101.603    -161.685     116.811
  C     -101.103    -163.515     115.033
  O     -101.884    -163.123     116.150
  C     -101.995    -164.160     113.972
  O     -102.551    -165.390     114.519
  C     -103.171    -163.281     113.528
  O     -103.397    -163.500     112.132
  C     -104.339    -163.847     114.315
  O     -105.609    -163.580     113.733
  C     -103.981    -165.335     114.333
  N     -104.679    -166.067     115.387
  C     -106.066    -166.135     115.308
  O     -106.738    -165.699     114.377
  N     -106.689    -166.741     116.369
  C     -106.077    -167.251     117.479
  O     -106.693    -167.762     118.409
  C     -104.611    -167.142     117.509
  C     -103.992    -166.563     116.478
  O     -100.043    -161.452     116.537
  O     -102.451    -160.579     116.277
  H      -99.824    -160.504     116.597
  H     -106.290    -163.841     114.386
  H     -107.694    -166.799     116.333
  H     -104.094    -167.525     118.379
  H     -102.910    -166.447     116.479
  H     -104.201    -165.792     113.357
  H     -104.339    -163.433     115.330
  H     -103.028    -162.212     113.714
  H     -101.374    -164.443     113.113
  H     -100.350    -164.242     115.352
  H     -100.593    -162.636     114.622
  P     -103.275    -162.229     111.155
  C     -101.183    -160.979     110.191
  O     -101.739    -162.183     110.703
  O     -103.424    -161.027     112.195
  O     -104.279    -162.245     110.051
  H     -103.020    -161.218     113.059
  H     -100.154    -161.138     109.944
  H     -101.257    -160.209     110.930
  H     -101.719    -160.684     109.313

 6  7  8  9  10  11  12  13  14  15  16  27  31  32  33  34  35 0
 6-311+G(2d,p)
 ****
 36  37 0
 6-311+G(2d,p)
 ****
 1  2  3  4  5  17  18  19  20  21  22  23  24  25 0
 3-21G
 ****
 26  28  29  30  38  39  40  41  42  43  44  45 0
 3-21G
 ****


