%nproc=1
%NoSave
%Mem=1900MB
#P OB98/GEN NMR

erre ene a

0 1
  C     -419.914    -116.461     821.810
  O     -420.443    -115.906     822.998
  H     -418.829    -116.323     821.812
  H     -420.331    -115.955     820.936
  H     -420.133    -117.532     821.767
  P     -422.038    -115.973     823.173
  C     -421.464    -118.451     823.654
  O     -422.384    -117.537     823.072
  C     -422.160    -119.314     824.704
  O     -422.322    -118.577     825.931
  C     -423.554    -119.787     824.304
  O     -423.469    -120.949     823.491
  C     -424.154    -120.106     825.667
  O     -423.705    -121.404     826.100
  C     -423.550    -119.016     826.569
  N     -426.742    -116.702     829.856
  C     -426.201    -117.939     829.856
  N     -425.404    -118.507     828.921
  C     -425.169    -117.654     827.912
  C     -425.656    -116.362     827.776
  C     -426.475    -115.883     828.817
  N     -427.025    -114.620     828.814
  N     -425.208    -115.787     826.605
  C     -424.419    -116.696     826.071
  N     -424.389    -117.856     826.806
  O     -422.825    -115.068     822.288
  O     -422.184    -115.687     824.742
  H     -424.166    -121.595     826.939
  H     -421.489    -116.153     825.240
  H     -426.439    -118.558     830.714
  H     -423.826    -116.559     825.172
  H     -423.277    -119.410     827.556
  H     -425.245    -120.134     825.652
  H     -424.135    -118.986     823.834
  H     -421.506    -120.170     824.925
  H     -420.633    -117.907     824.120
  H     -427.749    -114.432     829.489
  H     -426.933    -114.065     827.974
  H     -421.063    -119.076     822.854
  P     -424.722    -121.438     822.623
  C     -424.442    -119.415     821.058
  O     -425.313    -120.104     821.952
  O     -425.704    -122.279     823.362
  O     -424.066    -122.204     821.380
  H     -424.732    -122.760     820.936
  H     -424.938    -118.548     820.674
  H     -424.177    -120.062     820.248
  H     -423.557    -119.117     821.581

 6  7  8  9  10  11  12  13  14  15  25  28  32  33  34  35 0
 6-311+G(2d,p)
 ****
 36  39  40 0
 6-311+G(2d,p)
 ****
 1  2  3  4  5  16  17  18  19  20  21  22  23  24 0
 3-21G
 ****
 26  27  29  30  31  37  38  41  42  43  44  45  46  47 0
 3-21G
 ****
 48 0
 3-21G
 ****


