%nproc=1
%NoSave
%Mem=1900MB
#P OB98/GEN NMR

erre ene a

0 1
  C     -100.105     175.499    -424.710
  O      -98.814     176.041    -424.401
  P      -98.009     176.786    -425.568
  C      -97.609     178.987    -424.240
  O      -98.184     178.369    -425.383
  C      -98.066     180.445    -424.132
  O      -97.720     181.202    -425.310
  C      -99.571     180.605    -423.978
  O      -99.982     180.417    -422.632
  C      -99.757     182.058    -424.389
  O      -99.411     182.924    -423.290
  C      -98.738     182.208    -425.522
  N     -102.077     184.044    -428.944
  C     -101.767     184.433    -427.687
  N     -100.881     183.882    -426.832
  C     -100.269     182.830    -427.397
  C     -100.479     182.317    -428.666
  C     -101.434     182.971    -429.461
  N     -101.743     182.572    -430.741
  N      -99.673     181.220    -428.891
  C      -98.976     181.084    -427.782
  N      -99.306     182.029    -426.846
  O      -98.887     176.470    -426.870
  O      -96.603     176.313    -425.730
  H      -99.135     183.776    -423.675
  H      -98.305     176.375    -427.646
  H     -102.305     185.302    -427.319
  H      -98.224     180.326    -427.612
  H      -98.243     183.186    -425.512
  H     -100.790     182.288    -424.660
  H     -100.110     179.945    -424.671
  H      -97.559     180.896    -423.269
  H      -96.520     178.938    -424.294
  H     -102.418     183.107    -431.260
  H     -101.250     181.785    -431.138
  H      -97.898     178.420    -423.348
  P     -101.154     179.357    -422.362
  C      -99.229     177.863    -421.467
  O     -100.431     177.938    -422.208
  O     -101.891     179.268    -423.781
  O     -102.093     179.740    -421.267
  H     -102.837     179.063    -423.655
  H      -99.043     176.818    -421.207
  H      -99.295     178.447    -420.546
  H      -98.397     178.229    -422.076
  H     -100.516     175.036    -423.837
  H     -100.009     174.771    -425.488
  H     -100.754     176.286    -425.035

 3  4  5  6  7  8  9  10  11  12  22  25  29  30  31  32 0
 6-311+G(2d,p)
 ****
 33  36  37 0
 6-311+G(2d,p)
 ****
 1  2  13  14  15  16  17  18  19  20  21  23  24  26 0
 3-21G
 ****
 27  28  34  35  38  39  40  41  42  43  44  45  46  47  48 0
 3-21G
 ****


