%nproc=1
%NoSave
%Mem=1900MB
#P OB98/GEN NMR

erre ene a

0 1
  C       15.197    -208.072      70.490
  O       14.321    -209.113      70.867
  H       14.632    -207.330      69.920
  H       15.993    -208.473      69.855
  H       15.634    -207.585      71.364
  P       14.789    -210.140      72.000
  C       16.275    -211.367      70.284
  O       16.212    -210.727      71.549
  C       17.664    -211.968      70.037
  O       17.902    -213.041      70.977
  C       17.738    -212.580      68.635
  O       19.061    -212.555      68.107
  C       17.325    -214.023      68.876
  O       17.772    -214.910      67.854
  C       17.950    -214.280      70.246
  N       18.068    -217.282      74.359
  C       19.033    -216.419      73.881
  N       20.190    -216.365      74.577
  N       18.882    -215.688      72.807
  C       17.705    -215.901      72.171
  C       16.682    -216.747      72.534
  C       16.845    -217.520      73.746
  O       16.031    -218.315      74.208
  N       15.652    -216.706      71.629
  C       16.051    -215.844      70.716
  N       17.287    -215.317      71.007
  O       13.816    -211.398      71.798
  O       14.733    -209.626      73.407
  H       17.356    -214.627      67.018
  H       13.732    -211.898      72.629
  H       18.229    -217.810      75.199
  H       15.489    -215.564      69.834
  H       19.004    -214.570      70.142
  H       16.232    -214.070      68.890
  H       20.416    -217.032      75.299
  H       17.067    -212.083      67.934
  H       20.999    -215.974      74.087
  H       18.439    -211.214      70.210
  H       16.056    -210.608      69.527
  H       15.504    -212.137      70.210
  P       19.304    -211.728      66.757
  C       18.915    -213.533      64.894
  O       18.427    -212.409      65.601
  O       20.813    -212.082      66.366
  O       19.093    -210.259      66.906
  H       21.398    -211.327      66.560
  H       18.191    -213.840      64.169
  H       19.096    -214.335      65.579
  H       19.828    -213.274      64.399

 6  7  8  9  10  11  12  13  14  15  26  29  33  34 0
 6-311+G(2d,p)
 ****
 36  38  39  40  41 0
 6-311+G(2d,p)
 ****
 1  2  3  4  5  16  17  18  19  20  21  22  23  24  25 0
 3-21G
 ****
 27  28  30  31  32  35  37  42  43  44  45  46  47 0
 3-21G
 ****
 48  49 0
 3-21G
 ****


