%nproc=1
%NoSave
%Mem=1900MB
#P OB98/GEN NMR

erre ene a

0 1
  C       -6.741    -140.262      56.851
  O       -7.450    -139.975      58.040
  H       -7.079    -141.213      56.430
  H       -6.934    -139.468      56.124
  H       -5.667    -140.305      57.053
  P       -7.329    -141.045      59.230
  C       -9.638    -142.079      58.622
  O       -8.843    -141.429      59.604
  C      -11.010    -142.388      59.209
  O      -11.889    -142.896      58.179
  C      -10.987    -143.457      60.298
  O      -10.624    -142.935      61.564
  C      -12.438    -143.908      60.281
  O      -13.257    -142.937      60.959
  C      -12.745    -143.909      58.776
  N      -14.719    -147.562      55.782
  C      -15.209    -146.375      56.199
  N      -14.612    -145.450      56.977
  C      -13.378    -145.844      57.324
  C      -12.741    -147.023      56.970
  C      -13.469    -147.914      56.164
  N      -12.985    -149.140      55.764
  N      -11.482    -147.084      57.538
  C      -11.358    -145.953      58.203
  N      -12.490    -145.185      58.131
  O       -6.861    -140.168      60.485
  O       -6.440    -142.214      58.969
  H      -13.156    -142.094      60.479
  H       -6.542    -140.746      61.204
  H      -16.215    -146.138      55.865
  H      -10.480    -145.651      58.759
  H      -13.784    -143.636      58.558
  H      -12.588    -144.865      60.788
  H      -10.348    -144.301      60.018
  H      -11.444    -141.453      59.585
  H       -9.147    -143.011      58.323
  H      -13.633    -149.767      55.315
  H      -12.119    -149.473      56.162
  H       -9.740    -141.429      57.748
  P       -9.442    -143.678      62.360
  C      -10.860    -145.811      62.800
  O      -10.151    -144.712      63.363
  O       -8.894    -142.535      63.335
  O       -8.368    -144.245      61.491
  H       -7.937    -142.642      63.494
  H      -11.275    -146.408      63.585
  H      -10.190    -146.406      62.216
  H      -11.648    -145.445      62.176

 6  7  8  9  10  11  12  13  14  15  25  28  32  33  34  35 0
 6-311+G(2d,p)
 ****
 36  39  40 0
 6-311+G(2d,p)
 ****
 1  2  3  4  5  16  17  18  19  20  21  22  23  24 0
 3-21G
 ****
 26  27  29  30  31  37  38  41  42  43  44  45  46  47 0
 3-21G
 ****
 48 0
 3-21G
 ****


