%nproc=1
%NoSave
%Mem=1900MB
#P OB98/GEN NMR

erre ene a

0 1
  C       34.775      30.375     -68.660
  O       33.957      29.222     -68.647
  P       33.911      28.291     -67.345
  C       35.466      26.620     -66.156
  O       35.246      27.402     -67.331
  C       35.471      25.131     -66.505
  O       34.184      24.732     -67.031
  C       36.485      24.750     -67.576
  O       37.792      24.698     -67.037
  C       35.934      23.405     -68.036
  O       36.342      22.357     -67.137
  C       34.416      23.632     -67.940
  N       31.046      21.968     -71.396
  C       31.559      21.391     -70.286
  N       32.487      21.889     -69.436
  C       32.899      23.101     -69.844
  C       32.492      23.799     -70.969
  C       31.495      23.195     -71.760
  N       30.917      23.803     -72.854
  N       33.168      25.004     -71.062
  C       33.974      25.018     -70.016
  N       33.801      23.923     -69.218
  O       32.639      27.524     -67.153
  O       34.140      29.312     -66.134
  H       35.955      22.554     -66.264
  H       33.366      29.294     -65.539
  H       31.173      20.404     -70.047
  H       34.686      25.801     -69.790
  H       33.897      22.762     -67.519
  H       36.278      23.125     -69.037
  H       36.436      25.461     -68.413
  H       35.652      24.564     -65.579
  H       34.662      26.833     -65.446
  H       30.115      23.343     -73.260
  H       31.016      24.811     -72.956
  H       36.420      26.908     -65.704
  P       39.050      25.054     -67.966
  C       40.064      24.160     -70.148
  O       39.072      23.980     -69.155
  O       40.349      25.249     -67.251
  O       38.596      26.398     -68.715
  H       39.378      26.958     -68.890
  H       39.754      24.957     -70.831
  H       40.174      23.231     -70.712
  H       41.028      24.423     -69.698
  H       34.679      30.870     -69.604
  H       35.795      30.090     -68.508
  H       34.470      31.038     -67.878

 3  4  5  6  7  8  9  10  11  12  22  25  29  30  31  32 0
 6-311+G(2d,p)
 ****
 33  36  37 0
 6-311+G(2d,p)
 ****
 1  2  13  14  15  16  17  18  19  20  21  23  24  26 0
 3-21G
 ****
 27  28  34  35  38  39  40  41  42  43  44  45  46  47  48 0
 3-21G
 ****


