%nproc=1
%NoSave
%Mem=1900MB
#P OB98/GEN NMR

erre ene a

0 1
  C     -147.336    -887.896    -115.045
  O     -146.109    -888.557    -115.404
  P     -145.903    -890.095    -114.976
  C     -143.322    -889.968    -114.640
  O     -144.405    -890.577    -115.311
  C     -141.994    -890.193    -115.379
  O     -141.635    -891.616    -115.343
  C     -142.010    -889.793    -116.865
  O     -140.693    -889.332    -117.201
  C     -142.301    -891.105    -117.564
  O     -141.942    -891.098    -118.951
  C     -141.480    -892.069    -116.693
  N     -141.865    -893.473    -116.835
  C     -140.975    -894.332    -117.478
  O     -139.909    -893.971    -118.007
  N     -141.351    -895.647    -117.542
  C     -142.526    -896.177    -117.075
  O     -142.828    -897.353    -117.188
  C     -143.436    -895.199    -116.421
  C     -143.061    -893.917    -116.338
  O     -146.763    -890.867    -116.105
  O     -146.393    -890.470    -113.613
  H     -142.491    -890.428    -119.385
  H     -147.317    -891.555    -115.677
  H     -140.723    -896.284    -118.007
  H     -144.370    -895.589    -116.033
  H     -143.705    -893.214    -115.842
  H     -140.414    -891.950    -116.944
  H     -143.379    -891.312    -117.508
  H     -142.756    -889.015    -117.086
  H     -141.198    -889.660    -114.860
  H     -143.228    -890.374    -113.631
  H     -143.512    -888.880    -114.561
  P     -140.274    -887.828    -116.792
  C     -139.676    -887.033    -119.209
  O     -139.231    -887.319    -117.900
  O     -139.348    -888.136    -115.511
  O     -141.422    -886.934    -116.477
  H     -138.719    -888.860    -115.674
  H     -140.640    -886.506    -119.197
  H     -139.764    -887.943    -119.791
  H     -138.931    -886.381    -119.681
  H     -147.315    -886.887    -115.400
  H     -147.443    -887.897    -113.980
  H     -148.162    -888.413    -115.487

 3  4  5  6  7  8  9  10  11  12  13  23  28  29  30  31  32 0
 6-311+G(2d,p)
 ****
 33  34 0
 6-311+G(2d,p)
 ****
 1  2  14  15  16  17  18  19  20  21  22  24  25  26 0
 3-21G
 ****
 27  35  36  37  38  39  40  41  42  43  44  45 0
 3-21G
 ****


