%nproc=1
%NoSave
%Mem=1900MB
#P OB98/GEN NMR

erre ene a

0 1
  C      320.709      -7.618     -11.320
  O      320.326      -6.316     -11.795
  P      318.781      -6.032     -12.139
  C      317.547      -6.003      -9.832
  O      318.113      -5.260     -10.901
  C      316.023      -5.861      -9.840
  O      315.417      -6.847      -8.973
  C      315.513      -4.520      -9.332
  O      315.667      -3.493     -10.297
  C      314.059      -4.848      -9.020
  O      313.251      -4.783     -10.209
  C      314.162      -6.299      -8.512
  N      314.039      -6.396      -7.060
  C      313.778      -7.661      -6.545
  O      313.594      -8.651      -7.251
  N      313.698      -7.745      -5.181
  C      313.785      -6.699      -4.306
  O      313.685      -6.836      -3.093
  C      313.980      -5.377      -4.914
  C      314.091      -5.286      -6.242
  O      318.135      -7.495     -12.002
  O      318.511      -5.461     -13.491
  H      313.270      -3.853     -10.510
  H      317.354      -7.562     -12.583
  H      313.538      -8.657      -4.786
  H      314.031      -4.518      -4.258
  H      314.237      -4.315      -6.707
  H      313.379      -6.915      -8.970
  H      313.620      -4.154      -8.297
  H      316.028      -4.254      -8.401
  H      315.668      -6.044     -10.863
  H      317.936      -5.623      -8.883
  H      317.837      -7.053      -9.934
  P      316.803      -2.395     -10.009
  C      318.256      -2.623     -12.170
  O      317.282      -1.895     -11.454
  O      317.993      -3.323      -9.473
  O      316.363      -1.335      -9.057
  H      318.000      -4.195      -9.903
  H      318.182      -3.695     -11.975
  H      319.252      -2.269     -11.887
  H      318.110      -2.448     -13.240
  H      321.764      -7.636     -11.141
  H      320.459      -8.354     -12.056
  H      320.189      -7.833     -10.410

 3  4  5  6  7  8  9  10  11  12  13  23  28  29  30  31  32 0
 6-311+G(2d,p)
 ****
 33  34 0
 6-311+G(2d,p)
 ****
 1  2  14  15  16  17  18  19  20  21  22  24  25  26 0
 3-21G
 ****
 27  35  36  37  38  39  40  41  42  43  44  45 0
 3-21G
 ****


