%nproc=1
%NoSave
%Mem=1900MB
#P OB98/GEN NMR

erre ene a

0 1
  C       69.719     -29.270     -46.554
  O       70.564     -30.352     -46.891
  H       69.438     -28.716     -47.453
  H       68.812     -29.662     -46.086
  H       70.222     -28.603     -45.848
  P       71.943     -29.990     -47.627
  C       70.596     -30.088     -49.851
  O       71.512     -29.363     -49.041
  C       70.431     -29.371     -51.187
  O       70.049     -27.994     -50.968
  C       71.706     -29.321     -52.020
  O       71.926     -30.515     -52.751
  C       71.393     -28.158     -52.945
  O       70.486     -28.587     -53.977
  C       70.690     -27.182     -51.989
  N       72.546     -22.412     -52.090
  C       71.602     -23.029     -52.834
  N       71.151     -24.295     -52.730
  C       71.768     -24.940     -51.729
  C       72.743     -24.440     -50.881
  C       73.140     -23.110     -51.094
  N       74.123     -22.487     -50.358
  N       73.153     -25.411     -49.988
  C       72.424     -26.468     -50.282
  N       71.596     -26.243     -51.348
  O       72.544     -31.416     -48.034
  O       72.899     -29.153     -46.846
  H       70.983     -29.193     -54.559
  H       73.482     -31.330     -48.287
  H       71.155     -22.426     -53.619
  H       72.467     -27.417     -49.763
  H       69.910     -26.593     -52.485
  H       72.282     -27.763     -53.443
  H       72.577     -29.064     -51.407
  H       69.618     -29.857     -51.740
  H       69.630     -30.140     -49.339
  H       74.439     -21.587     -50.681
  H       74.671     -23.040     -49.716
  H       70.976     -31.101     -50.011
  P       73.435     -31.061     -52.839
  C       74.025     -29.894     -55.083
  O       74.261     -29.975     -53.683
  O       73.309     -32.295     -53.848
  O       74.029     -31.459     -51.528
  H       73.955     -32.992     -53.628
  H       74.644     -29.130     -55.505
  H       72.996     -29.657     -55.258
  H       74.257     -30.834     -55.539

 6  7  8  9  10  11  12  13  14  15  25  28  32  33  34  35 0
 6-311+G(2d,p)
 ****
 36  39  40 0
 6-311+G(2d,p)
 ****
 1  2  3  4  5  16  17  18  19  20  21  22  23  24 0
 3-21G
 ****
 26  27  29  30  31  37  38  41  42  43  44  45  46  47 0
 3-21G
 ****
 48 0
 3-21G
 ****


