%nproc=1
%NoSave
%Mem=1900MB
#P OB98/GEN NMR

erre ene a

0 1
  C      203.796    -438.843    -930.641
  O      203.020    -438.182    -931.633
  P      201.420    -438.274    -931.495
  C      201.259    -439.195    -933.929
  O      200.954    -439.389    -932.542
  C      201.700    -440.522    -934.565
  O      202.768    -441.103    -933.793
  C      200.612    -441.579    -934.618
  O      199.702    -441.312    -935.679
  C      201.436    -442.847    -934.812
  O      201.717    -443.071    -936.215
  C      202.736    -442.528    -934.037
  N      202.854    -443.285    -932.801
  C      203.998    -444.108    -932.681
  O      204.810    -444.141    -933.617
  N      204.163    -444.847    -931.551
  C      203.259    -444.796    -930.617
  N      203.466    -445.570    -929.515
  C      202.030    -443.995    -930.709
  C      201.888    -443.265    -931.814
  O      200.925    -436.900    -932.162
  O      200.917    -438.436    -930.097
  H      202.355    -443.814    -936.244
  H      200.056    -436.624    -931.803
  H      201.319    -443.981    -929.901
  H      201.026    -442.633    -931.977
  H      203.616    -442.753    -934.672
  H      200.909    -443.732    -934.445
  H      200.068    -441.636    -933.658
  H      202.082    -440.305    -935.571
  H      204.309    -446.120    -929.480
  H      202.067    -438.472    -934.026
  H      202.840    -445.590    -928.717
  H      200.364    -438.798    -934.436
  P      198.188    -440.956    -935.286
  C      197.391    -442.831    -936.856
  O      197.374    -442.323    -935.535
  O      197.711    -440.050    -936.531
  O      197.966    -440.280    -933.975
  H      196.827    -439.698    -936.354
  H      196.942    -443.813    -936.864
  H      198.425    -442.903    -937.234
  H      196.803    -442.164    -937.518
  H      204.836    -438.704    -930.850
  H      203.568    -439.888    -930.648
  H      203.568    -438.434    -929.679

 3  4  5  6  7  8  9  10  11  12  13  21  23  27  28  29  30  32 0
 6-311+G(2d,p)
 ****
 34  35 0
 6-311+G(2d,p)
 ****
 1  2  14  15  16  17  18  19  20  22  24  25  26 0
 3-21G
 ****
 31  33  36  37  38  39  40  41  42  43  44  45  46 0
 3-21G
 ****


