%nproc=1
%NoSave
%Mem=1900MB
#P OB98/GEN NMR

erre ene a

0 1
  C     -233.087    -355.091     -85.981
  O     -234.466    -354.733     -85.930
  P     -234.893    -353.254     -86.388
  C     -234.483    -353.681     -88.970
  O     -234.241    -352.920     -87.806
  C     -235.656    -353.065     -89.747
  O     -235.277    -351.782     -90.290
  C     -236.129    -353.929     -90.915
  O     -237.079    -354.893     -90.515
  C     -236.688    -352.884     -91.860
  O     -238.001    -352.462     -91.428
  C     -235.666    -351.732     -91.692
  N     -234.439    -351.762     -92.520
  C     -234.422    -351.113     -93.755
  O     -235.379    -350.507     -94.234
  N     -233.239    -351.174     -94.448
  C     -232.044    -351.651     -93.977
  O     -231.008    -351.625     -94.623
  C     -232.087    -352.186     -92.614
  C     -233.257    -352.230     -91.962
  O     -234.109    -352.303     -85.374
  O     -236.375    -353.003     -86.363
  H     -237.881    -351.988     -90.584
  H     -234.737    -351.811     -84.813
  H     -233.232    -350.774     -95.378
  H     -231.158    -352.532     -92.184
  H     -233.288    -352.625     -90.952
  H     -236.144    -350.762     -91.867
  H     -236.822    -353.290     -92.870
  H     -235.269    -354.396     -91.406
  H     -236.491    -352.903     -89.044
  H     -234.713    -354.723     -88.718
  H     -233.584    -353.701     -89.591
  P     -236.835    -356.440     -90.870
  C     -236.103    -356.994     -88.472
  O     -235.723    -356.953     -89.828
  O     -236.582    -356.753     -92.301
  O     -238.170    -357.158     -90.324
  H     -238.820    -357.283     -91.053
  H     -235.322    -357.509     -87.899
  H     -237.047    -357.549     -88.354
  H     -236.220    -355.983     -88.083
  H     -232.968    -356.100     -85.647
  H     -232.525    -354.437     -85.348
  H     -232.733    -355.005     -86.987

 3  4  5  6  7  8  9  10  11  12  13  23  28  29  30  31  32 0
 6-311+G(2d,p)
 ****
 33  34 0
 6-311+G(2d,p)
 ****
 1  2  14  15  16  17  18  19  20  21  22  24  25  26  27 0
 3-21G
 ****
 35  36  37  38  39  40  41  42  43  44  45 0
 3-21G
 ****


