%nproc=1
%NoSave
%Mem=1900MB
#P OB98/GEN NMR

erre ene a

0 1
  C      144.486      17.296     128.881
  O      144.038      16.142     129.562
  P      145.127      15.197     130.268
  C      145.552      13.218     128.587
  O      144.862      13.707     129.728
  C      144.557      12.636     127.577
  O      143.878      11.500     128.187
  C      143.486      13.618     127.098
  O      143.207      13.313     125.725
  C      142.289      13.264     127.970
  O      141.053      13.680     127.405
  C      142.460      11.746     128.080
  N      141.748      11.160     129.219
  C      140.473      11.641     129.513
  O      139.923      12.551     128.890
  N      139.851      11.059     130.591
  C      140.393      10.121     131.422
  O      139.799       9.648     132.383
  C      141.758       9.685     131.081
  C      142.357      10.205     130.019
  O      144.578      15.165     131.772
  O      146.532      15.678     130.119
  H      143.607      15.172     131.828
  H      140.969      13.268     126.522
  H      138.916      11.369     130.803
  H      142.228       8.947     131.734
  H      143.365       9.907     129.753
  H      142.122      11.262     127.152
  H      142.398      13.747     128.951
  H      143.798      14.665     127.193
  H      145.131      12.247     126.723
  H      146.252      12.434     128.899
  H      146.138      14.033     128.144
  P      143.082      14.547     124.687
  C      140.601      15.005     125.404
  O      141.522      14.734     124.361
  O      143.635      13.849     123.356
  O      143.848      15.772     125.067
  H      143.243      12.982     123.181
  H      139.689      15.425     124.956
  H      141.002      15.725     126.118
  H      140.343      14.077     125.914
  H      143.646      17.815     128.468
  H      145.151      17.010     128.093
  H      145.000      17.937     129.566

 3  4  5  6  7  8  9  10  11  12  13  24  28  29  30  31  32 0
 6-311+G(2d,p)
 ****
 33  34 0
 6-311+G(2d,p)
 ****
 1  2  14  15  16  17  18  19  20  21  22  23  25  26  27 0
 3-21G
 ****
 35  36  37  38  39  40  41  42  43  44  45 0
 3-21G
 ****


