%nproc=1
%NoSave
%Mem=1900MB
#P OB98/GEN NMR

erre ene a

0 1
  C       76.602      65.821    -391.777
  O       76.607      64.414    -391.956
  P       75.238      63.601    -392.102
  C       72.926      63.687    -390.864
  O       74.314      63.934    -390.849
  C       72.452      63.393    -389.431
  O       72.772      64.505    -388.564
  C       70.946      63.169    -389.373
  O       70.643      61.786    -389.446
  C       70.569      63.799    -388.047
  O       70.833      62.887    -386.962
  C       71.536      65.004    -387.985
  N       71.161      66.240    -388.701
  C       70.516      67.260    -388.018
  O       70.259      67.225    -386.818
  N       70.150      68.346    -388.775
  C       70.407      68.511    -390.108
  O       69.870      69.355    -390.817
  C       71.314      67.529    -390.702
  C       71.628      66.443    -389.993
  O       75.688      62.088    -391.840
  O       74.537      63.759    -393.412
  H       70.423      62.035    -387.199
  H       75.808      61.613    -392.684
  H       69.557      69.033    -388.318
  H       71.659      67.696    -391.720
  H       72.277      65.683    -390.431
  H       71.750      65.284    -386.948
  H       69.505      64.020    -388.003
  H       70.448      63.724    -390.182
  H       72.989      62.508    -389.059
  H       72.702      62.838    -391.521
  H       72.393      64.555    -391.265
  P       69.239      61.313    -390.058
  C       66.846      62.192    -389.811
  O       68.127      62.117    -389.224
  O       69.037      59.835    -390.144
  O       69.217      62.003    -391.505
  H       69.499      61.360    -392.187
  H       66.143      62.597    -389.076
  H       66.502      61.197    -390.117
  H       66.874      62.863    -390.675
  H       77.609      66.174    -391.701
  H       76.070      66.065    -390.881
  H       76.123      66.285    -392.614

 3  4  5  6  7  8  9  10  11  12  13  23  28  29  30  31  32 0
 6-311+G(2d,p)
 ****
 33  34 0
 6-311+G(2d,p)
 ****
 1  2  14  15  16  17  18  19  20  21  22  24  25  26  27 0
 3-21G
 ****
 35  36  37  38  39  40  41  42  43  44  45 0
 3-21G
 ****


