%nproc=1
%NoSave
%Mem=1900MB
#P OB98/GEN NMR

erre ene a

0 1
  C      245.862    -384.807     -97.872
  O      246.279    -385.846     -96.978
  P      246.934    -387.160     -97.630
  C      249.367    -386.198     -97.719
  O      248.223    -386.644     -98.430
  C      250.453    -387.271     -97.748
  O      250.897    -387.513     -99.107
  C      251.713    -386.906     -96.976
  O      251.505    -387.008     -95.574
  C      252.706    -387.906     -97.551
  O      252.545    -389.190     -96.925
  C      252.266    -387.981     -99.028
  N      253.137    -387.232     -99.923
  C      254.060    -387.987    -100.641
  O      254.167    -389.206    -100.522
  N      254.876    -387.287    -101.485
  C      254.878    -385.933    -101.662
  O      255.626    -385.362    -102.444
  C      253.916    -385.184    -100.840
  C      253.102    -385.855    -100.022
  O      245.866    -387.502     -98.769
  O      247.171    -388.246     -96.635
  H      245.472    -386.711     -99.172
  H      253.093    -389.817     -97.440
  H      255.544    -387.818    -102.026
  H      253.908    -384.105    -100.932
  H      252.387    -385.319     -99.404
  H      252.246    -389.024     -99.365
  H      253.744    -387.596     -97.398
  H      252.024    -385.884     -97.228
  H      250.024    -388.201     -97.357
  H      249.102    -385.984     -96.679
  H      249.720    -385.265     -98.169
  P      251.399    -385.632     -94.754
  C      248.909    -386.103     -94.108
  O      249.845    -385.242     -94.720
  O      252.034    -384.598     -95.798
  O      252.083    -385.667     -93.428
  H      251.717    -384.732     -96.705
  H      248.007    -385.530     -93.879
  H      249.301    -386.527     -93.181
  H      248.649    -386.911     -94.798
  H      245.447    -383.997     -97.309
  H      245.123    -385.190     -98.544
  H      246.705    -384.458     -98.431

 3  4  5  6  7  8  9  10  11  12  13  24  28  29  30  31  32 0
 6-311+G(2d,p)
 ****
 33  34 0
 6-311+G(2d,p)
 ****
 1  2  14  15  16  17  18  19  20  21  22  23  25  26  27 0
 3-21G
 ****
 35  36  37  38  39  40  41  42  43  44  45 0
 3-21G
 ****


