%nproc=1
%NoSave
%Mem=1900MB
#P OB98/GEN NMR

erre ene a

0 1
  C     -292.653     129.446      12.334
  O     -291.475     129.712      13.064
  H     -292.823     130.265      11.630
  H     -293.508     129.387      13.011
  H     -292.556     128.512      11.772
  P     -290.942     128.565      14.052
  C     -289.212     127.567      12.390
  O     -290.413     127.366      13.119
  C     -288.329     126.319      12.462
  O     -289.025     125.219      11.821
  C     -286.975     126.486      11.770
  O     -285.981     125.806      12.540
  C     -287.155     125.776      10.440
  O     -285.926     125.312       9.888
  C     -288.150     124.668      10.818
  N     -288.893     124.199       9.650
  C     -288.358     123.106       8.964
  O     -287.303     122.592       9.340
  N     -288.991     122.657       7.832
  C     -290.023     123.298       7.378
  N     -290.590     122.823       6.235
  C     -290.583     124.496       8.032
  C     -289.979     124.883       9.156
  O     -292.284     127.969      14.686
  O     -289.971     129.015      15.090
  H     -286.067     125.136       8.933
  H     -292.135     127.655      15.597
  H     -291.427     125.014       7.599
  H     -290.315     125.758       9.703
  H     -287.625     123.815      11.268
  H     -287.614     126.464       9.717
  H     -286.680     127.533      11.643
  H     -288.199     126.047      13.516
  H     -290.166     122.007       5.805
  H     -288.668     128.413      12.826
  H     -291.368     123.268       5.767
  H     -289.453     127.806      11.349
  P     -284.918     126.718      13.323
  C     -286.584     127.915      14.918
  O     -285.673     128.038      13.832
  O     -283.964     127.254      12.154
  O     -284.150     125.982      14.370
  H     -283.092     126.820      12.212
  H     -287.005     128.873      15.141
  H     -286.066     127.544      15.778
  H     -287.366     127.235      14.652

 6  7  8  9  10  11  12  13  14  15  16  26  30  31  32  33  35 0
 6-311+G(2d,p)
 ****
 37  38 0
 6-311+G(2d,p)
 ****
 1  2  3  4  5  17  18  19  20  21  22  23  24  25 0
 3-21G
 ****
 27  28  29  34  36  39  40  41  42  43  44  45  46 0
 3-21G
 ****


