%nproc=1
%NoSave
%Mem=1900MB
#P OB98/GEN NMR

erre ene a

0 1
  C     -214.252    -314.288     309.369
  O     -214.189    -313.696     308.076
  P     -213.048    -312.594     307.825
  C     -213.210    -312.608     305.231
  O     -213.441    -311.889     306.437
  C     -214.138    -312.122     304.127
  O     -215.507    -312.436     304.468
  C     -214.116    -310.620     303.893
  O     -213.011    -310.222     303.089
  C     -215.431    -310.410     303.156
  O     -215.260    -310.731     301.759
  C     -216.355    -311.442     303.835
  N     -220.524    -308.677     304.638
  C     -219.945    -309.081     303.452
  N     -220.583    -308.713     302.319
  N     -218.837    -309.773     303.385
  C     -218.331    -310.102     304.595
  C     -218.813    -309.759     305.843
  C     -220.010    -308.956     305.905
  O     -220.533    -308.508     306.929
  N     -218.038    -310.300     306.839
  C     -217.110    -310.987     306.200
  N     -217.232    -310.873     304.843
  O     -211.764    -313.472     307.441
  O     -212.777    -311.689     308.974
  H     -214.578    -310.123     301.410
  H     -210.950    -312.979     307.650
  H     -221.388    -308.162     304.639
  H     -216.340    -311.569     306.684
  H     -216.971    -311.969     303.092
  H     -215.793    -309.378     303.212
  H     -221.502    -308.296     302.310
  H     -214.136    -310.074     304.843
  H     -220.191    -309.036     301.439
  H     -213.890    -312.659     303.201
  H     -213.399    -313.674     305.413
  H     -212.162    -312.481     304.934
  P     -212.659    -308.653     303.071
  C     -210.083    -309.004     303.082
  O     -211.229    -308.557     302.370
  O     -212.358    -308.330     304.607
  O     -213.738    -307.789     302.511
  H     -212.535    -307.385     304.796
  H     -210.315    -309.883     303.688
  H     -209.716    -308.199     303.722
  H     -209.300    -309.273     302.364
  H     -215.051    -314.999     309.397
  H     -214.425    -313.527     310.101
  H     -213.327    -314.783     309.580

 3  4  5  6  7  8  9  10  11  12  23  26  30  31  33  0
 6-311+G(2d,p)
 ****
 35  36  37  38 0
 6-311+G(2d,p)
 ****
 1  2  13  14  15  16  17  18  19  20  21  22  24  25  27  28  29 0
 3-21G
 ****
 32  34  39  40  41  42  43  44  45  46  47  48  49 0
 3-21G
 ****


