%nproc=1
%NoSave
%Mem=1900MB
#P OB98/GEN NMR

erre ene a

0 1
  C      -25.609      74.742     129.813
  O      -26.252      73.859     130.707
  H      -26.305      75.543     129.550
  H      -25.331      74.205     128.902
  H      -24.719      75.185     130.264
  P      -25.365      72.809     131.525
  C      -25.271      70.967     129.720
  O      -24.546      71.943     130.451
  C      -24.416      69.722     129.458
  O      -23.092      70.125     129.029
  C      -24.239      68.915     130.747
  O      -24.056      67.525     130.490
  C      -22.957      69.486     131.331
  O      -22.317      68.603     132.246
  C      -22.154      69.757     130.058
  N      -17.428      70.971     131.527
  C      -18.103      69.775     131.660
  N      -17.442      68.778     132.288
  N      -19.325      69.581     131.234
  C      -19.890      70.688     130.694
  C      -19.330      71.934     130.530
  C      -17.965      72.125     130.971
  O      -17.323      73.170     130.895
  N      -20.219      72.812     129.959
  C      -21.315      72.101     129.786
  N      -21.161      70.802     130.203
  O      -26.437      71.753     132.076
  O      -24.539      73.383     132.637
  H      -22.110      67.780     131.766
  H      -26.100      71.312     132.876
  H      -16.484      71.063     131.861
  H      -22.239      72.474     129.361
  H      -21.632      68.849     129.729
  H      -23.206      70.398     131.879
  H      -16.579      68.934     132.785
  H      -25.081      69.042     131.430
  H      -18.012      68.010     132.653
  H      -24.848      69.129     128.644
  H      -25.564      71.426     128.770
  H      -26.187      70.699     130.252
  P      -25.114      66.508     131.134
  C      -23.754      65.546     133.160
  O      -24.792      66.392     132.700
  O      -24.682      65.089     130.537
  O      -26.536      66.841     130.822
  H      -25.312      64.809     129.846
  H      -23.693      65.604     134.227
  H      -22.824      65.858     132.733
  H      -23.960      64.537     132.868

 6  7  8  9  10  11  12  13  14  15  26  29  33  34 0
 6-311+G(2d,p)
 ****
 36  38  39  40  41 0
 6-311+G(2d,p)
 ****
 1  2  3  4  5  16  17  18  19  20  21  22  23  24  25 0
 3-21G
 ****
 27  28  30  31  32  35  37  42  43  44  45  46  47 0
 3-21G
 ****
 48  49 0
 3-21G
 ****


