%nproc=1
%NoSave
%Mem=1900MB
#P OB98/GEN NMR

erre ene a

0 1
  C       75.545     349.427     612.753
  O       74.220     349.077     613.069
  H       75.532     350.209     611.990
  H       76.082     348.564     612.344
  H       76.065     349.816     613.631
  P       73.947     347.915     614.140
  C       73.347     349.586     615.999
  O       74.257     348.579     615.576
  C       73.926     350.412     617.154
  O       75.066     351.191     616.684
  C       72.926     351.388     617.792
  O       72.970     351.274     619.211
  C       73.435     352.762     617.359
  O       73.037     353.799     618.232
  C       74.954     352.493     617.296
  N       75.656     353.515     616.548
  C       76.496     354.364     617.303
  O       76.590     354.202     618.519
  N       77.132     355.399     616.670
  C       76.944     355.593     615.402
  N       77.587     356.644     614.849
  C       76.049     354.744     614.579
  C       75.449     353.734     615.207
  O       74.659     346.633     613.869
  O       72.356     347.751     614.168
  H       73.507     354.617     617.977
  H       72.134     346.850     614.517
  H       75.911     354.964     613.526
  H       74.769     353.060     614.684
  H       75.378     352.421     618.304
  H       73.062     352.982     616.354
  H       71.900     351.221     617.455
  H       74.332     349.712     617.902
  H       78.170     357.206     615.441
  H       72.405     349.100     616.302
  H       77.482     356.922     613.877
  H       73.152     350.252     615.146
  P       71.691     350.616     619.925
  C       72.973     348.489     620.695
  O       71.897     349.020     619.925
  O       70.513     350.846     618.855
  O       71.367     351.223     621.248
  H       69.888     351.511     619.197
  H       72.987     347.423     620.601
  H       72.841     348.754     621.723
  H       73.899     348.891     620.339

 6  7  8  9  10  11  12  13  14  15  16  26  30  31  32  33  35 0
 6-311+G(2d,p)
 ****
 37  38 0
 6-311+G(2d,p)
 ****
 1  2  3  4  5  17  18  19  20  21  22  23  24  25 0
 3-21G
 ****
 27  28  29  34  36  39  40  41  42  43  44  45  46 0
 3-21G
 ****


