%nproc=1
%NoSave
%Mem=1900MB
#P OB98/GEN NMR

erre ene a

0 1
  C     -116.152     265.236    -215.268
  O     -116.088     266.360    -216.126
  H     -117.181     264.865    -215.260
  H     -115.867     265.517    -214.252
  H     -115.496     264.444    -215.638
  P     -114.661     267.083    -216.256
  C     -114.160     266.820    -218.780
  O     -113.935     266.322    -217.468
  C     -114.543     265.679    -219.723
  O     -115.787     265.088    -219.308
  C     -114.739     266.104    -221.174
  O     -113.488     266.158    -221.847
  C     -115.601     264.964    -221.697
  O     -114.768     263.829    -222.015
  C     -116.496     264.633    -220.490
  N     -121.465     263.928    -221.570
  C     -120.375     263.176    -221.830
  N     -119.082     263.453    -221.568
  C     -118.960     264.639    -220.954
  C     -119.982     265.516    -220.621
  C     -121.288     265.122    -220.950
  N     -122.401     265.893    -220.687
  N     -119.480     266.644    -220.005
  C     -118.185     266.421    -219.908
  N     -117.815     265.240    -220.501
  O     -113.877     267.201    -214.988
  O     -115.083     268.475    -216.925
  H     -114.383     263.518    -221.172
  H     -115.767     268.334    -217.606
  H     -120.570     262.223    -222.325
  H     -117.476     267.068    -219.405
  H     -116.651     263.550    -220.384
  H     -116.136     265.228    -222.605
  H     -115.294     267.046    -221.256
  H     -113.771     264.901    -219.645
  H     -113.256     267.318    -219.153
  H     -123.266     265.622    -221.124
  H     -122.251     266.832    -220.345
  H     -114.965     267.556    -218.724
  P     -113.002     267.497    -222.586
  C     -110.702     267.814    -221.475
  O     -112.063     268.243    -221.526
  O     -114.104     268.318    -223.172
  O     -111.959     266.983    -223.685
  H     -111.810     267.679    -224.356
  H     -110.177     268.381    -220.735
  H     -110.245     267.964    -222.431
  H     -110.665     266.775    -221.221

 6  7  8  9  10  11  12  13  14  15  25  28  32  33  34  35 0
 6-311+G(2d,p)
 ****
 36  39  40 0
 6-311+G(2d,p)
 ****
 1  2  3  4  5  16  17  18  19  20  21  22  23  24 0
 3-21G
 ****
 26  27  29  30  31  37  38  41  42  43  44  45  46  47 0
 3-21G
 ****
 48 0
 3-21G
 ****


