%nproc=1
%NoSave
%Mem=1900MB
#P OB98/GEN NMR

erre ene a

0 1
  C     -133.008      54.560    -185.994
  O     -134.154      54.429    -186.813
  H     -133.295      54.459    -184.944
  H     -132.305      53.761    -186.243
  H     -132.519      55.522    -186.159
  P     -135.183      55.660    -186.834
  C     -134.635      58.129    -187.424
  O     -134.548      56.764    -187.813
  C     -134.899      59.013    -188.641
  O     -133.728      58.975    -189.507
  C     -136.117      58.592    -189.480
  O     -136.790      59.772    -189.932
  C     -135.487      57.894    -190.676
  O     -136.321      57.921    -191.830
  C     -134.193      58.681    -190.836
  N     -132.029      58.161    -195.410
  C     -132.765      59.158    -194.869
  N     -133.261      59.243    -193.614
  C     -132.865      58.188    -192.878
  C     -132.116      57.098    -193.286
  C     -131.699      57.099    -194.636
  N     -131.009      56.061    -195.215
  N     -131.972      56.192    -192.254
  C     -132.648      56.711    -191.247
  N     -133.211      57.912    -191.577
  O     -134.989      56.296    -185.374
  O     -136.606      55.306    -187.103
  H     -137.159      57.461    -191.626
  H     -135.584      55.852    -184.744
  H     -132.994      59.989    -195.529
  H     -132.790      56.248    -190.283
  H     -134.339      59.632    -191.367
  H     -135.283      56.846    -190.421
  H     -136.820      57.945    -188.945
  H     -135.010      60.052    -188.297
  H     -133.687      58.429    -186.965
  H     -130.851      56.104    -196.210
  H     -130.854      55.219    -194.679
  H     -135.435      58.243    -186.687
  P     -138.169      60.157    -189.208
  C     -138.460      62.403    -187.928
  O     -137.843      61.123    -187.971
  O     -138.608      58.788    -188.506
  O     -139.221      60.655    -190.143
  H     -139.579      58.713    -188.483
  H     -138.143      62.922    -187.048
  H     -139.523      62.286    -187.910
  H     -138.178      62.964    -188.794

 6  7  8  9  10  11  12  13  14  15  25  28  32  33  34  35 0
 6-311+G(2d,p)
 ****
 36  39  40 0
 6-311+G(2d,p)
 ****
 1  2  3  4  5  16  17  18  19  20  21  22  23  24 0
 3-21G
 ****
 26  27  29  30  31  37  38  41  42  43  44  45  46  47 0
 3-21G
 ****
 48 0
 3-21G
 ****


