%nproc=1
%NoSave
%Mem=1900MB
#P OB98/GEN NMR

erre ene a

0 1
  C     -209.655     221.464      41.552
  O     -208.745     220.516      42.118
  P     -208.618     219.089      41.388
  C     -210.984     218.406      42.267
  O     -210.122     218.578      41.155
  C     -212.342     217.838      41.827
  O     -212.155     216.497      41.277
  C     -213.386     217.743      42.948
  O     -214.656     218.060      42.354
  C     -213.337     216.280      43.342
  O     -214.532     215.863      43.990
  C     -213.074     215.628      41.973
  N     -212.551     214.270      42.085
  C     -213.378     213.239      41.662
  O     -214.532     213.422      41.275
  N     -212.853     211.979      41.735
  C     -211.634     211.648      42.254
  O     -211.210     210.501      42.295
  C     -210.851     212.773      42.795
  C     -211.338     214.003      42.691
  O     -208.066     218.172      42.575
  O     -207.761     219.137      40.168
  H     -208.436     218.396      43.446
  H     -214.371     215.001      44.430
  H     -213.425     211.213      41.395
  H     -209.898     212.541      43.268
  H     -210.792     214.851      43.098
  H     -213.998     215.591      41.385
  H     -212.494     216.103      44.021
  H     -213.184     218.429      43.777
  H     -212.719     218.470      41.015
  H     -211.153     219.369      42.763
  H     -210.501     217.742      43.005
  P     -215.258     219.532      42.593
  C     -217.277     219.304      44.251
  O     -215.901     219.543      44.059
  O     -216.554     219.453      41.640
  O     -214.346     220.659      42.239
  H     -217.067     218.645      41.759
  H     -217.463     219.121      45.309
  H     -217.603     218.427      43.682
  H     -217.859     220.180      43.936
  H     -209.640     222.363      42.132
  H     -210.644     221.054      41.554
  H     -209.362     221.684      40.547

 3  4  5  6  7  8  9  10  11  12  13  24  28  29  30  31  32 0
 6-311+G(2d,p)
 ****
 33  34 0
 6-311+G(2d,p)
 ****
 1  2  14  15  16  17  18  19  20  21  22  23  25  26  27 0
 3-21G
 ****
 35  36  37  38  39  40  41  42  43  44  45 0
 3-21G
 ****


