%nproc=1
%NoSave
%Mem=1900MB
#P OB98/GEN NMR

erre ene a

0 1
  C     -119.996      50.165     362.010
  O     -118.692      50.162     362.568
  P     -117.509      49.303     361.910
  C     -117.450      47.848     364.029
  O     -117.601      47.865     362.615
  C     -118.481      46.913     364.654
  O     -119.801      47.347     364.246
  C     -118.395      45.445     364.237
  O     -117.457      44.676     364.971
  C     -119.802      44.972     364.567
  O     -119.917      44.734     365.982
  C     -120.655      46.180     364.164
  N     -123.851      43.573     361.137
  C     -123.569      43.473     362.455
  N     -122.691      44.193     363.184
  C     -122.100      45.129     362.423
  C     -122.286      45.352     361.068
  C     -123.215      44.524     360.416
  N     -123.517      44.644     359.073
  N     -121.486      46.393     360.631
  C     -120.837      46.788     361.708
  N     -121.179      46.061     362.814
  O     -116.174      49.960     361.947
  O     -118.016      49.009     360.423
  H     -120.823      44.405     366.142
  H     -117.266      48.723     359.865
  H     -124.121      42.709     362.999
  H     -120.116      47.585     361.729
  H     -121.501      46.345     364.843
  H     -120.067      44.037     364.065
  H     -118.227      45.349     363.154
  H     -118.417      47.009     365.747
  H     -117.613      48.864     364.406
  H     -124.286      44.096     358.721
  H     -123.166      45.452     358.580
  H     -116.431      47.543     364.289
  P     -116.241      44.013     364.148
  C     -117.541      41.744     364.030
  O     -116.882      42.789     363.342
  O     -115.043      43.686     364.967
  O     -115.957      45.101     363.003
  H     -116.665      45.205     362.346
  H     -118.042      41.102     363.302
  H     -118.290      42.144     364.716
  H     -116.813      41.144     364.585
  H     -120.632      50.796     362.594
  H     -120.386      49.169     362.009
  H     -119.953      50.532     361.006

 3  4  5  6  7  8  9  10  11  12  22  25  29  30  31  32 0
 6-311+G(2d,p)
 ****
 33  36  37 0
 6-311+G(2d,p)
 ****
 1  2  13  14  15  16  17  18  19  20  21  23  24  26 0
 3-21G
 ****
 27  28  34  35  38  39  40  41  42  43  44  45  46  47  48 0
 3-21G
 ****


