%nproc=1
%NoSave
%Mem=1900MB
#P OB98/GEN NMR

erre ene a

0 1
  C      -10.396     237.889    -599.783
  O      -10.157     237.746    -601.191
  P       -9.666     236.318    -601.728
  C      -11.610     236.237    -603.459
  O      -10.208     236.137    -603.226
  C      -11.886     236.492    -604.946
  O      -11.732     237.892    -605.283
  C      -10.950     235.731    -605.880
  O      -11.386     234.389    -606.083
  C      -11.103     236.534    -607.163
  O      -12.323     236.137    -607.834
  C      -11.221     237.970    -606.639
  N       -7.987     240.640    -609.475
  C       -9.208     240.080    -609.801
  N       -9.635     240.269    -611.063
  N       -9.948     239.396    -608.961
  C       -9.405     239.306    -607.724
  C       -8.206     239.815    -607.273
  C       -7.393     240.560    -608.216
  O       -6.300     241.061    -607.980
  N       -7.994     239.514    -605.957
  C       -9.072     238.839    -605.597
  N       -9.947     238.675    -606.646
  O      -10.575     235.294    -600.896
  O       -8.213     236.054    -601.533
  H      -12.397     236.706    -608.630
  H      -10.106     234.444    -600.791
  H       -7.457     241.151    -610.159
  H       -9.258     238.457    -604.608
  H      -11.928     238.571    -607.227
  H      -10.288     236.351    -607.869
  H       -9.135     240.826    -611.752
  H       -9.912     235.780    -605.530
  H      -10.540     239.891    -611.321
  H      -12.924     236.189    -605.153
  H      -12.038     237.046    -602.860
  H      -12.095     235.317    -603.115
  P      -10.322     233.338    -606.657
  C      -10.107     231.762    -604.605
  O      -10.624     231.954    -605.916
  O       -8.949     233.836    -606.016
  O      -10.250     233.278    -608.149
  H       -8.206     233.636    -606.622
  H      -10.539     230.842    -604.198
  H      -10.365     232.595    -603.958
  H       -9.019     231.646    -604.655
  H      -10.716     238.889    -599.575
  H       -9.494     237.685    -599.245
  H      -11.156     237.200    -599.479

 3  4  5  6  7  8  9  10  11  12  23  26  30  31 0
 6-311+G(2d,p)
 ****
 33  35  36  37  38 0
 6-311+G(2d,p)
 ****
 1  2  13  14  15  16  17  18  19  20  21  22  24  25 0
 3-21G
 ****
 27  28  29  32  34  39  40  41  42  43  44  45  46  47  48  49 0
 3-21G
 ****


