%nproc=1
%NoSave
%Mem=1900MB
#P OB98/GEN NMR

erre ene a

0 1
  C      -41.899     -56.254    -181.886
  O      -41.474     -54.990    -182.357
  H      -42.946     -56.399    -182.160
  H      -41.809     -56.299    -180.796
  H      -41.299     -57.048    -182.342
  P      -39.969     -54.565    -181.996
  C      -40.692     -52.718    -180.326
  O      -40.017     -53.953    -180.512
  C      -40.607     -52.278    -178.867
  O      -41.187     -53.273    -177.998
  C      -39.187     -52.029    -178.367
  O      -38.749     -50.726    -178.715
  C      -39.368     -52.208    -176.865
  O      -39.927     -51.018    -176.266
  C      -40.369     -53.370    -176.799
  N      -37.763     -56.528    -173.842
  C      -38.144     -55.216    -173.630
  N      -37.749     -54.650    -172.467
  N      -38.839     -54.515    -174.485
  C      -39.116     -55.188    -175.627
  C      -38.794     -56.484    -175.957
  C      -38.070     -57.267    -174.978
  O      -37.775     -58.455    -175.072
  N      -39.267     -56.812    -177.203
  C      -39.844     -55.705    -177.635
  N      -39.773     -54.691    -176.718
  O      -39.714     -53.276    -182.916
  O      -38.932     -55.610    -182.235
  H      -39.416     -50.244    -176.558
  H      -38.793     -53.297    -183.235
  H      -37.254     -57.028    -173.135
  H      -40.330     -55.593    -178.596
  H      -41.043     -53.279    -175.939
  H      -38.416     -52.386    -176.365
  H      -36.987     -55.027    -171.921
  H      -38.499     -52.794    -178.743
  H      -37.965     -53.669    -172.347
  H      -41.216     -51.367    -178.764
  H      -41.744     -52.844    -180.606
  H      -40.238     -51.958    -180.970
  P      -37.464     -50.590    -179.663
  C      -35.751     -51.038    -177.762
  O      -36.274     -51.456    -179.016
  O      -37.001     -49.075    -179.421
  O      -37.726     -50.843    -181.110
  H      -37.242     -48.528    -180.194
  H      -34.971     -51.706    -177.460
  H      -36.531     -51.046    -177.030
  H      -35.357     -50.047    -177.852

 6  7  8  9  10  11  12  13  14  15  26  29  33  34 0
 6-311+G(2d,p)
 ****
 36  38  39  40  41 0
 6-311+G(2d,p)
 ****
 1  2  3  4  5  16  17  18  19  20  21  22  23  24  25 0
 3-21G
 ****
 27  28  30  31  32  35  37  42  43  44  45  46  47 0
 3-21G
 ****
 48  49 0
 3-21G
 ****


