%nproc=1
%NoSave
%Mem=1900MB
#P OB98/GEN NMR

erre ene a

0 1
  C      321.742    -330.654      25.003
  O      322.319    -331.942      24.861
  H      322.335    -330.085      25.727
  H      320.719    -330.746      25.387
  H      321.746    -330.131      24.048
  P      321.619    -332.932      23.810
  C      323.257    -334.948      24.008
  O      321.968    -334.423      24.301
  C      323.523    -336.187      24.858
  O      323.599    -335.798      26.252
  C      322.424    -337.247      24.790
  O      322.520    -338.033      23.618
  C      322.688    -338.022      26.070
  O      323.717    -339.007      25.890
  C      323.159    -336.934      27.039
  N      320.475    -338.337      31.139
  C      321.501    -338.935      30.480
  N      322.171    -338.475      29.404
  C      321.698    -337.280      29.020
  C      320.659    -336.560      29.583
  C      320.025    -337.135      30.701
  N      318.956    -336.552      31.344
  N      320.434    -335.395      28.873
  C      321.329    -335.407      27.902
  N      322.118    -336.521      27.956
  O      322.509    -332.747      22.495
  O      320.170    -332.670      23.552
  H      323.280    -339.800      25.496
  H      322.096    -332.083      21.908
  H      321.806    -339.898      30.874
  H      321.439    -334.634      27.148
  H      324.020    -337.259      27.644
  H      321.786    -338.558      26.397
  H      321.440    -336.768      24.855
  H      324.493    -336.606      24.566
  H      324.010    -334.183      24.228
  H      323.304    -335.203      22.936
  H      318.540    -337.031      32.126
  H      318.550    -335.699      30.955
  P      321.205    -338.763      23.070
  C      322.196    -338.680      20.665
  O      321.577    -339.464      21.677
  O      320.256    -337.545      22.642
  O      320.541    -339.665      24.057
  H      319.587    -337.371      23.332
  H      322.379    -339.289      19.804
  H      323.124    -338.293      21.031
  H      321.551    -337.869      20.398

 6  7  8  9  10  11  12  13  14  15  25  28  32  33  34  35 0
 6-311+G(2d,p)
 ****
 36  37  40 0
 6-311+G(2d,p)
 ****
 1  2  3  4  5  16  17  18  19  20  21  22  23  24 0
 3-21G
 ****
 26  27  29  30  31  38  39 41  42  43  44  45  46  47  48 0
 3-21G
 ****


