%nproc=1
%NoSave
%Mem=1900MB
#P OB98/GEN NMR

erre ene a

0 1
  C     -116.921    -252.088    -219.046
  O     -116.448    -251.500    -217.850
  H     -117.999    -251.930    -219.117
  H     -116.724    -253.164    -219.029
  H     -116.441    -251.633    -219.920
  P     -114.859    -251.324    -217.706
  C     -115.215    -248.769    -217.411
  O     -114.626    -249.956    -216.899
  C     -115.175    -247.664    -216.358
  O     -116.124    -247.929    -215.308
  C     -113.817    -247.489    -215.683
  O     -112.939    -246.682    -216.461
  C     -114.227    -246.772    -214.407
  O     -114.490    -245.380    -214.696
  C     -115.540    -247.487    -214.050
  N     -114.196    -249.043    -209.412
  C     -114.160    -247.778    -209.964
  N     -113.694    -246.786    -209.173
  N     -114.544    -247.506    -211.186
  C     -114.965    -248.598    -211.872
  C     -115.036    -249.906    -211.432
  C     -114.625    -250.183    -210.075
  O     -114.644    -251.287    -209.533
  N     -115.513    -250.737    -212.409
  C     -115.706    -249.943    -213.444
  N     -115.383    -248.634    -213.167
  O     -114.407    -250.965    -219.201
  O     -114.130    -252.521    -217.190
  H     -114.812    -245.333    -215.613
  H     -114.015    -251.761    -219.610
  H     -113.878    -249.202    -208.467
  H     -116.081    -250.261    -214.405
  H     -116.265    -246.813    -213.569
  H     -113.454    -246.795    -213.639
  H     -113.363    -246.931    -208.229
  H     -113.361    -248.457    -215.430
  H     -113.662    -245.850    -209.557
  H     -115.483    -246.729    -216.845
  H     -116.254    -248.975    -217.681
  H     -114.665    -248.458    -218.304
  P     -111.363    -246.783    -216.177
  C     -110.528    -245.572    -218.309
  O     -110.675    -245.523    -216.899
  O     -110.921    -248.025    -217.084
  O     -110.986    -246.993    -214.748
  H     -110.663    -248.779    -216.519
  H     -110.058    -244.673    -218.650
  H     -111.491    -245.666    -218.765
  H     -109.923    -246.414    -218.576

 6  7  8  9  10  11  12  13  14  15  26  29  33  34 0
 6-311+G(2d,p)
 ****
 36  38  39  40  41 0
 6-311+G(2d,p)
 ****
 1  2  3  4  5  16  17  18  19  20  21  22  23  24  25 0
 3-21G
 ****
 27  28  30  31  32  35  37  42  43  44  45  46  47 0
 3-21G
 ****
 48  49 0
 3-21G
 ****


