%nproc=1
%NoSave
%Mem=1900MB
#P OB98/GEN NMR

erre ene a

0 1
  C       -0.224      24.636      18.128
  O       -1.150      25.426      17.411
  H       -0.152      25.019      19.149
  H        0.766      24.682      17.668
  H       -0.567      23.599      18.170
  P       -1.325      25.176      15.839
  C       -2.994      23.252      15.464
  O       -2.827      24.653      15.626
  C       -4.478      22.881      15.446
  O       -5.171      23.706      16.420
  C       -5.146      23.089      14.082
  O       -6.092      22.038      13.880
  C       -5.853      24.416      14.260
  O       -6.935      24.553      13.359
  C       -6.243      24.385      15.741
  N       -6.453      25.735      16.261
  C       -7.775      26.189      16.306
  O       -8.694      25.458      15.933
  N       -8.023      27.476      16.706
  C       -7.034      28.264      16.985
  N       -7.348      29.540      17.337
  C       -5.621      27.839      16.925
  C       -5.405      26.575      16.562
  O       -0.275      24.341      15.185
  O       -1.364      26.654      15.225
  H       -7.464      23.727      13.358
  H       -0.464      26.940      14.984
  H       -4.832      28.537      17.161
  H       -4.400      26.179      16.479
  H       -7.161      23.804      15.891
  H       -5.151      25.237      14.070
  H       -4.431      23.114      13.255
  H       -4.581      21.841      15.780
  H       -8.328      29.793      17.340
  H       -2.502      22.755      16.307
  H       -6.664      30.255      17.534
  H       -2.515      22.926      14.535
  P       -5.768      20.829      12.876
  C       -4.227      19.069      13.913
  O       -5.577      19.479      13.727
  O       -4.674      21.105      11.897
  O       -7.156      20.585      12.111
  H       -6.974      20.250      11.213
  H       -4.204      18.167      14.488
  H       -3.690      19.836      14.431
  H       -3.772      18.896      12.960

 6  7  8  9  10  11  12  13  14  15  16  26  30  31  32  33  35 0
 6-311+G(2d,p)
 ****
 37  38 0
 6-311+G(2d,p)
 ****
 1  2  3  4  5  17  18  19  20  21  22  23  24  25 0
 3-21G
 ****
 27  28  29  34  36  39  40  41  42  43  44  45  46 0
 3-21G
 ****


