%nproc=1
%NoSave
%Mem=1900MB
#P OB98/GEN NMR

erre ene a

0 1
  C     -430.457     466.974     728.945
  O     -429.846     468.251     728.992
  H     -430.507     466.572     729.966
  H     -429.872     466.286     728.322
  H     -431.471     467.062     728.554
  P     -429.500     468.998     727.616
  C     -426.954     468.570     727.557
  O     -428.226     468.233     726.991
  C     -425.832     468.318     726.530
  O     -424.557     468.552     727.180
  C     -425.829     466.881     725.981
  O     -425.456     466.932     724.599
  C     -424.746     466.206     726.789
  O     -424.199     465.086     726.130
  C     -423.757     467.366     727.034
  N     -422.930     467.114     728.220
  C     -421.828     466.269     728.034
  O     -421.580     465.803     726.913
  N     -421.051     465.926     729.106
  C     -421.390     466.342     730.299
  N     -420.616     465.939     731.339
  C     -422.571     467.209     730.541
  C     -423.290     467.551     729.470
  O     -429.368     470.483     727.685
  O     -430.695     468.556     726.638
  H     -423.648     465.386     725.381
  H     -431.424     469.203     726.696
  H     -422.814     467.527     731.560
  H     -424.170     468.176     729.567
  H     -423.106     467.501     726.163
  H     -425.162     465.863     727.756
  H     -426.795     466.372     726.086
  H     -425.926     469.051     725.721
  H     -419.839     465.333     731.122
  H     -426.800     467.933     728.433
  H     -420.796     466.175     732.317
  H     -426.951     469.619     727.855
  P     -426.516     467.412     723.482
  C     -427.718     465.171     723.153
  O     -427.848     466.522     723.596
  O     -425.962     467.517     722.100
  O     -426.991     468.856     724.003
  H     -427.220     469.412     723.246
  H     -428.654     464.666     723.269
  H     -426.970     464.675     723.736
  H     -427.432     465.160     722.122

 6  7  8  9  10  11  12  13  14  15  16  26  30  31  32  33  35 0
 6-311+G(2d,p)
 ****
 37  38 0
 6-311+G(2d,p)
 ****
 1  2  3  4  5  17  18  19  20  21  22  23  24  25 0
 3-21G
 ****
 27  28  29  34  36  39  40  41  42  43  44  45  46 0
 3-21G
 ****


