%nproc=1
%NoSave
%Mem=1900MB
#P OB98/GEN NMR

erre ene a

0 1
  C       11.096     -97.557    -591.455
  O        9.680     -97.360    -591.364
  P        8.956     -96.822    -592.697
  C        8.464     -94.378    -591.943
  O        9.215     -95.239    -592.797
  C        8.618     -92.909    -592.338
  O        7.669     -92.107    -591.579
  C       10.007     -92.313    -592.088
  O       10.315     -91.396    -593.148
  C        9.825     -91.497    -590.822
  O       10.803     -90.473    -590.694
  C        8.391     -90.994    -591.027
  N        8.366     -87.429    -587.435
  C        9.085     -87.489    -588.618
  N        9.932     -86.466    -588.866
  N        8.982     -88.465    -589.482
  C        8.074     -89.408    -589.117
  C        7.299     -89.457    -587.976
  C        7.457     -88.393    -587.013
  O        6.890     -88.312    -585.927
  N        6.501     -90.571    -587.962
  C        6.795     -91.207    -589.087
  N        7.752     -90.536    -589.817
  O        7.396     -96.936    -592.334
  O        9.285     -97.603    -593.922
  H       10.617     -89.998    -589.856
  H        6.938     -97.489    -592.999
  H        8.503     -86.669    -586.803
  H        6.376     -92.146    -589.407
  H        8.367     -90.174    -591.755
  H        9.898     -92.163    -589.950
  H       10.013     -85.644    -588.279
  H       10.805     -93.054    -591.998
  H       10.425     -86.464    -589.741
  H        8.339     -92.808    -593.401
  H        8.800     -94.511    -590.912
  H        7.412     -94.677    -591.988
  P       11.220     -91.963    -594.347
  C       13.417     -90.710    -593.707
  O       12.732     -91.944    -593.794
  O       11.204     -90.773    -595.419
  O       10.754     -93.254    -594.924
  H       11.344     -91.124    -596.317
  H       12.754     -89.849    -593.847
  H       14.202     -90.681    -594.469
  H       13.883     -90.633    -592.712
  H       11.467     -97.914    -590.517
  H       11.570     -96.629    -591.697
  H       11.308     -98.276    -592.219

 3  4  5  6  7  8  9  10  11  12  23  26  30  31  33  0
 6-311+G(2d,p)
 ****
 35  36  37  38 0
 6-311+G(2d,p)
 ****
 1  2  13  14  15  16  17  18  19  20  21  22  24  25  27  28  29 0
 3-21G
 ****
 32  34  39  40  41  42  43  44  45  46  47  48  49 0
 3-21G
 ****


