%nproc=1
%NoSave
%Mem=1900MB
#P OB98/GEN NMR

erre ene a

0 1
  C     -921.496     864.738     110.656
  O     -921.082     863.522     111.239
  H     -920.615     865.258     110.280
  H     -921.982     865.370     111.411
  H     -922.188     864.552     109.832
  P     -922.244     862.593     111.851
  C     -923.027     860.941     109.970
  O     -922.157     861.194     111.065
  C     -922.345     860.071     108.903
  O     -921.182     860.783     108.395
  C     -921.821     858.716     109.462
  O     -921.852     857.774     108.389
  C     -920.396     859.072     109.804
  O     -919.637     857.899     110.033
  C     -920.023     859.926     108.612
  N     -915.329     860.880     106.836
  C     -916.303     860.071     106.394
  N     -917.530     859.881     106.909
  C     -917.730     860.651     107.990
  C     -916.840     861.540     108.560
  C     -915.574     861.656     107.945
  N     -914.571     862.462     108.403
  N     -917.388     862.151     109.683
  C     -918.606     861.637     109.765
  N     -918.848     860.736     108.781
  O     -923.592     863.247     111.270
  O     -922.270     862.481     113.336
  H     -919.927     857.430     110.834
  H     -923.963     863.863     111.920
  H     -916.064     859.497     105.498
  H     -919.345     861.908     110.541
  H     -919.901     859.320     107.702
  H     -920.354     859.645     110.741
  H     -922.428     858.341     110.313
  H     -923.050     859.929     108.072
  H     -923.312     861.914     109.513
  H     -923.932     860.441     110.328
  H     -913.680     862.477     107.918
  H     -914.732     863.023     109.229
  P     -922.386     856.271     108.681
  C     -924.955     856.441     108.173
  O     -923.662     855.984     107.763
  O     -923.068     856.432     110.123
  O     -921.354     855.210     108.691
  H     -923.019     855.590     110.596
  H     -925.682     856.160     107.440
  H     -924.942     857.506     108.272
  H     -925.208     855.998     109.114

 6  7  8  9  10  11  12  13  14  15  25  28  32  33  34  35 0
 6-311+G(2d,p)
 ****
 36  37  40 0
 6-311+G(2d,p)
 ****
 1  2  3  4  5  16  17  18  19  20  21  22  23  24 0
 3-21G
 ****
 26  27  29  30  31  38  39 41  42  43  44  45  46  47  48 0
 3-21G
 ****


