%nproc=1
%NoSave
%Mem=1900MB
#P OB98/GEN NMR

erre ene a

0 1
  C     -333.984     175.490    -376.322
  O     -332.864     175.069    -377.106
  P     -331.435     175.033    -376.364
  C     -330.394     172.965    -377.551
  O     -330.384     174.376    -377.381
  C     -329.161     172.503    -378.326
  O     -329.252     172.871    -379.713
  C     -327.854     173.113    -377.840
  O     -327.367     172.457    -376.680
  C     -326.944     172.849    -379.033
  O     -326.434     171.507    -378.969
  C     -327.904     173.004    -380.222
  N     -329.172     175.698    -384.322
  C     -329.478     174.395    -383.991
  N     -330.264     173.723    -384.865
  N     -329.065     173.807    -382.902
  C     -328.316     174.607    -382.107
  C     -327.941     175.915    -382.327
  C     -328.386     176.546    -383.550
  O     -328.114     177.689    -383.910
  N     -327.191     176.402    -381.290
  C     -327.131     175.404    -380.430
  N     -327.792     174.288    -380.889
  O     -331.636     173.895    -375.256
  O     -331.033     176.336    -375.762
  H     -327.196     170.904    -379.089
  H     -331.042     174.056    -374.500
  H     -329.515     176.103    -385.178
  H     -326.635     175.438    -379.471
  H     -327.760     172.217    -380.968
  H     -326.078     173.517    -379.059
  H     -330.678     174.137    -385.683
  H     -327.959     174.195    -377.684
  H     -330.527     172.776    -384.618
  H     -329.108     171.408    -378.260
  H     -331.295     172.662    -378.089
  H     -330.439     172.490    -376.567
  P     -327.171     173.351    -375.361
  C     -327.376     171.170    -373.967
  O     -326.632     172.340    -374.240
  O     -328.674     173.666    -374.912
  O     -326.373     174.592    -375.567
  H     -328.712     174.515    -374.433
  H     -327.716     170.696    -374.892
  H     -328.238     171.415    -373.341
  H     -326.738     170.465    -373.429
  H     -334.868     175.471    -376.924
  H     -333.816     176.485    -375.966
  H     -334.105     174.829    -375.489

 3  4  5  6  7  8  9  10  11  12  23  26  30  31  33  0
 6-311+G(2d,p)
 ****
 35  36  37  38 0
 6-311+G(2d,p)
 ****
 1  2  13  14  15  16  17  18  19  20  21  22  24  25  27  28  29 0
 3-21G
 ****
 32  34  39  40  41  42  43  44  45  46  47  48  49 0
 3-21G
 ****


