%nproc=1
%NoSave
%Mem=1900MB
#P OB98/GEN NMR

erre ene a

0 1
  C     -304.263     106.751    -222.233
  O     -303.526     106.488    -221.044
  P     -304.051     105.315    -220.088
  C     -301.799     104.732    -218.942
  O     -303.076     105.330    -218.813
  C     -300.739     105.542    -218.205
  O     -301.216     105.902    -216.893
  C     -299.422     104.818    -217.987
  O     -298.577     104.869    -219.120
  C     -298.823     105.650    -216.850
  O     -298.255     106.851    -217.379
  C     -300.061     105.968    -216.011
  N     -300.019     105.542    -210.915
  C     -299.720     106.571    -211.731
  N     -299.740     106.606    -213.074
  C     -300.094     105.406    -213.581
  C     -300.389     104.259    -212.860
  C     -300.363     104.351    -211.473
  N     -300.702     103.308    -210.639
  N     -300.706     103.230    -213.730
  C     -300.602     103.742    -214.935
  N     -300.242     105.061    -214.897
  O     -303.620     103.989    -220.869
  O     -305.518     105.345    -219.798
  H     -297.874     107.349    -216.630
  H     -304.184     103.238    -220.592
  H     -299.421     107.491    -211.241
  H     -300.788     103.203    -215.855
  H     -300.028     106.995    -215.602
  H     -298.028     105.128    -216.317
  H     -299.584     103.786    -217.634
  H     -300.570     106.478    -218.771
  H     -301.533     104.665    -220.003
  H     -300.828     103.507    -209.655
  H     -301.144     102.491    -211.043
  H     -301.844     103.704    -218.539
  P     -298.269     103.464    -219.853
  C     -299.337     104.382    -222.048
  O     -298.201     103.817    -221.416
  O     -299.644     102.666    -219.695
  O     -297.110     102.722    -219.286
  H     -299.481     101.701    -219.726
  H     -299.029     104.837    -222.983
  H     -299.796     105.147    -221.418
  H     -300.072     103.585    -222.254
  H     -303.801     107.553    -222.769
  H     -305.266     107.024    -221.978
  H     -304.277     105.874    -222.846

 3  4  5  6  7  8  9  10  11  12  22  25  29  30  31  32 0
 6-311+G(2d,p)
 ****
 33  36  37 0
 6-311+G(2d,p)
 ****
 1  2  13  14  15  16  17  18  19  20  21  23  24  26 0
 3-21G
 ****
 27  28  34  35  38  39  40  41  42  43  44  45  46  47  48 0
 3-21G
 ****


