%nproc=1
%NoSave
%Mem=1900MB
#P OB98/GEN NMR

erre ene a

0 1
  C     -926.529    1696.342     735.715
  O     -926.529    1697.588     735.041
  H     -925.496    1696.035     735.886
  H     -927.025    1695.588     735.123
  H     -927.033    1696.431     736.691
  P     -927.976    1698.159     734.604
  C     -927.437    1698.687     732.116
  O     -927.626    1699.192     733.416
  C     -927.403    1699.848     731.093
  O     -928.658    1700.558     731.101
  C     -926.352    1700.902     731.412
  O     -925.038    1700.515     731.013
  C     -926.862    1702.055     730.543
  O     -926.589    1701.763     729.137
  C     -928.380    1701.949     730.839
  N     -928.800    1702.793     731.985
  C     -929.639    1703.888     731.667
  O     -929.993    1704.114     730.500
  N     -930.038    1704.718     732.679
  C     -929.639    1704.466     733.893
  N     -930.063    1705.335     734.851
  C     -928.783    1703.335     734.278
  C     -928.414    1702.540     733.272
  O     -928.378    1699.121     735.812
  O     -929.003    1697.122     734.260
  H     -925.634    1701.839     729.036
  H     -929.195    1699.634     735.580
  H     -928.470    1703.186     735.279
  H     -927.766    1701.704     733.456
  H     -928.957    1702.241     729.944
  H     -926.418    1703.021     730.773
  H     -926.379    1701.226     732.439
  H     -927.274    1699.417     730.101
  H     -930.609    1706.137     734.570
  H     -928.252    1698.010     731.862
  H     -929.714    1705.331     735.823
  H     -926.490    1698.139     732.058
  P     -923.849    1700.804     732.060
  C     -922.372    1701.975     730.260
  O     -922.490    1700.931     731.199
  O     -923.689    1699.388     732.805
  O     -924.080    1701.938     733.024
  H     -923.434    1699.526     733.744
  H     -921.418    1701.916     729.779
  H     -922.462    1702.917     730.760
  H     -923.147    1701.885     729.527

 6  7  8  9  10  11  12  13  14  15  16  26  30  31  32  33  35 0
 6-311+G(2d,p)
 ****
 37  38 0
 6-311+G(2d,p)
 ****
 1  2  3  4  5  17  18  19  20  21  22  23  24  25 0
 3-21G
 ****
 27  28  29  34  36  39  40  41  42  43  44  45  46 0
 3-21G
 ****


