%nproc=1
%NoSave
%Mem=1900MB
#P OB98/GEN NMR

erre ene a

0 1
  C       50.442     -94.026     233.636
  O       51.632     -93.572     234.240
  H       49.842     -93.155     233.358
  H       49.862     -94.630     234.338
  H       50.662     -94.603     232.735
  P       52.691     -94.646     234.792
  C       54.825     -95.692     233.821
  O       53.601     -95.034     233.520
  C       55.952     -95.196     232.915
  O       55.666     -95.561     231.538
  C       56.154     -93.673     232.957
  O       57.545     -93.374     233.098
  C       55.671     -93.212     231.591
  O       56.245     -91.972     231.186
  C       56.031     -94.427     230.732
  N       55.343     -94.413     229.447
  C       56.035     -93.822     228.384
  O       57.160     -93.355     228.558
  N       55.415     -93.722     227.166
  C       54.193     -94.135     227.031
  N       53.626     -93.980     225.805
  C       53.417     -94.738     228.133
  C       54.048     -94.851     229.301
  O       52.088     -95.803     235.513
  O       53.701     -93.797     235.699
  H       55.840     -91.707     230.332
  H       54.144     -94.404     236.336
  H       52.397     -95.061     227.971
  H       53.559     -95.280     230.168
  H       57.113     -94.472     230.549
  H       54.579     -93.085     231.618
  H       55.602     -93.189     233.762
  H       56.875     -95.725     233.187
  H       54.192     -93.554     225.079
  H       54.681     -96.771     233.697
  H       52.675     -94.239     225.588
  H       55.085     -95.481     234.862
  P       58.178     -93.620     234.553
  C       59.546     -95.545     235.627
  O       59.216     -94.840     234.441
  O       56.956     -94.226     235.389
  O       58.715     -92.380     235.185
  H       56.653     -93.577     236.052
  H       60.243     -96.324     235.397
  H       58.659     -95.972     236.046
  H       59.985     -94.871     236.332

 6  7  8  9  10  11  12  13  14  15  16  26  30  31  32  33  35 0
 6-311+G(2d,p)
 ****
 37  38 0
 6-311+G(2d,p)
 ****
 1  2  3  4  5  17  18  19  20  21  22  23  24  25 0
 3-21G
 ****
 27  28  29  34  36  39  40  41  42  43  44  45  46 0
 3-21G
 ****


