%nproc=1
%NoSave
%Mem=1900MB
#P OB98/GEN NMR

erre ene a

0 1
  C      206.834      40.051    -897.780
  O      205.845      39.990    -898.790
  H      206.557      39.412    -896.950
  H      207.782      39.697    -898.200
  H      206.962      41.081    -897.440
  P      204.360      40.433    -898.380
  C      205.096      42.846    -898.980
  O      204.413      42.009    -898.060
  C      204.670      44.301    -898.790
  O      203.250      44.400    -899.070
  C      204.906      44.855    -897.370
  O      205.743      46.014    -897.430
  C      203.523      45.284    -896.890
  O      203.535      46.514    -896.170
  C      202.722      45.394    -898.180
  N      198.234      47.727    -897.550
  C      199.380      48.134    -898.150
  N      200.504      47.432    -898.370
  C      200.365      46.155    -897.950
  C      199.253      45.594    -897.350
  C      198.152      46.441    -897.140
  N      197.004      46.035    -896.490
  N      199.487      44.264    -897.040
  C      200.730      44.048    -897.410
  N      201.311      45.172    -897.940
  O      204.171      39.766    -896.930
  O      203.284      40.023    -899.320
  H      202.646      46.621    -895.790
  H      203.310      39.306    -896.890
  H      199.403      49.174    -898.470
  H      201.282      43.122    -897.270
  H      202.840      46.372    -898.660
  H      203.116      44.505    -896.240
  H      205.339      44.110    -896.690
  H      205.192      44.917    -899.530
  H      204.854      42.537    -900.000
  H      196.316      46.743    -896.280
  H      196.979      45.119    -896.080
  H      206.175      42.734    -898.830
  P      206.935      46.099    -896.350
  C      208.509      46.514    -898.380
  O      208.314      45.850    -897.140
  O      206.749      44.752    -895.500
  O      206.885      47.314    -895.480
  H      207.109      44.867    -894.600
  H      209.466      46.249    -898.780
  H      208.466      47.572    -898.228
  H      207.742      46.221    -899.066

 6  7  8  9  10  11  12  13  14  15  25  28  32  33  34  35 0
 6-311+G(2d,p)
 ****
 36  39  40 0
 6-311+G(2d,p)
 ****
 1  2  3  4  5  16  17  18  19  20  21  22  23  24 0
 3-21G
 ****
 26  27  29  30  31  37  38  41  42  43  44  45  46  47  48 0
 3-21G
 ****


