%nproc=1
%NoSave
%Mem=1900MB
#P OB98/GEN NMR

erre ene a

0 1
  C      210.247     534.800    1688.255
  O      209.838     533.554    1688.829
  P      210.455     533.168    1690.260
  C      212.179     531.625    1689.081
  O      211.962     532.652    1690.029
  C      213.618     531.111    1689.177
  O      213.824     530.355    1690.402
  C      213.996     530.164    1688.049
  O      214.231     530.873    1686.849
  C      215.246     529.507    1688.637
  O      216.382     530.367    1688.509
  C      214.857     529.373    1690.130
  N      216.188     524.772    1691.921
  C      216.905     525.870    1691.678
  N      216.476     527.066    1691.191
  C      215.150     527.045    1690.970
  C      214.288     525.986    1691.170
  C      214.856     524.784    1691.665
  N      214.119     523.650    1691.899
  N      213.000     526.336    1690.823
  C      213.087     527.582    1690.407
  N      214.368     528.052    1690.484
  O      209.653     531.841    1690.670
  O      210.286     534.252    1691.292
  H      216.244     531.138    1689.078
  H      209.016     532.038    1691.397
  H      217.967     525.808    1691.891
  H      212.255     528.152    1690.025
  H      215.700     529.596    1690.783
  H      215.498     528.549    1688.150
  H      213.213     529.405    1687.897
  H      214.277     531.988    1689.191
  H      211.986     531.993    1688.074
  H      214.609     522.810    1692.182
  H      213.139     523.633    1691.650
  H      211.453     530.808    1689.264
  P      213.004     530.994    1685.812
  C      214.160     529.919    1683.764
  O      213.203     529.747    1684.828
  O      213.484     532.238    1684.901
  O      211.665     531.118    1686.427
  H      214.421     532.153    1684.649
  H      214.231     528.990    1683.201
  H      215.151     530.172    1684.193
  H      213.836     530.728    1683.096
  H      209.765     534.932    1687.309
  H      211.308     534.798    1688.118
  H      209.974     535.601    1688.910

 3  4  5  6  7  8  9  10  11  12  22  25  29  30  31  32 0
 6-311+G(2d,p)
 ****
 33  36  37 0
 6-311+G(2d,p)
 ****
 1  2  13  14  15  16  17  18  19  20  21  23  24  26 0
 3-21G
 ****
 27  28  34  35  38  39  40  41  42  43  44  45  46  47  48 0
 3-21G
 ****


