%nproc=1
%NoSave
%Mem=1900MB
#P OB98/GEN NMR

erre ene a

0 1
  C      217.229    -444.968    -417.957
  O      217.106    -445.302    -416.572
  P      218.097    -446.390    -415.953
  C      219.332    -445.006    -414.166
  O      219.417    -445.637    -415.440
  C      220.458    -445.484    -413.242
  O      221.755    -445.122    -413.753
  C      220.385    -444.883    -411.849
  O      219.345    -445.480    -411.099
  C      221.791    -445.149    -411.340
  O      221.916    -446.483    -410.841
  C      222.641    -444.976    -412.619
  N      223.366    -443.711    -412.666
  C      224.648    -443.725    -412.106
  O      225.090    -444.745    -411.585
  N      225.390    -442.567    -412.146
  C      224.901    -441.499    -412.691
  N      225.681    -440.387    -412.701
  C      223.544    -441.449    -413.277
  C      222.837    -442.576    -413.224
  O      218.344    -447.599    -416.795
  O      217.371    -446.792    -414.577
  H      221.348    -446.535    -410.049
  H      217.588    -447.718    -414.361
  H      223.180    -440.533    -413.719
  H      221.843    -442.618    -413.632
  H      223.376    -445.783    -412.705
  H      222.065    -444.470    -410.520
  H      220.213    -443.794    -411.919
  H      220.399    -446.581    -413.177
  H      226.599    -440.459    -412.279
  H      218.358    -445.230    -413.714
  H      225.408    -439.518    -413.144
  H      219.374    -443.916    -414.309
  P      218.584    -444.568    -410.010
  C      216.363    -444.205    -411.303
  O      217.556    -443.627    -410.807
  O      219.728    -443.544    -409.546
  O      218.019    -445.308    -408.845
  H      219.607    -443.324    -408.603
  H      215.646    -443.406    -411.512
  H      215.917    -444.881    -410.569
  H      216.570    -444.751    -412.225
  H      216.498    -444.230    -418.212
  H      217.073    -445.845    -418.550
  H      218.208    -444.580    -418.145

 3  4  5  6  7  8  9  10  11  12  13  23  27  28  29  30  32 0
 6-311+G(2d,p)
 ****
 34  35 0
 6-311+G(2d,p)
 ****
 1  2  14  15  16  17  18  19  20  21  22  24  25  26 0
 3-21G
 ****
 31  33  36  37  38  39  40  41  42  43  44  45  46 0
 3-21G
 ****


