%nproc=1
%NoSave
%Mem=1900MB
#P OB98/GEN NMR

erre ene a

0 1
  C     -507.370    -336.471    -717.400
  O     -506.028    -336.826    -717.207
  P     -505.729    -338.033    -716.178
  C     -505.603    -336.416    -714.158
  O     -504.931    -337.404    -714.947
  C     -504.782    -336.096    -712.916
  O     -504.862    -337.206    -711.980
  C     -503.289    -335.881    -713.190
  O     -503.060    -334.597    -713.721
  C     -502.721    -336.097    -711.776
  O     -502.731    -334.880    -711.027
  C     -503.657    -337.144    -711.170
  N     -503.054    -338.448    -711.025
  C     -501.940    -338.536    -710.163
  O     -501.539    -337.525    -709.593
  N     -501.315    -339.749    -710.021
  C     -501.748    -340.788    -710.652
  N     -501.100    -341.954    -710.477
  C     -502.902    -340.739    -711.596
  C     -503.494    -339.539    -711.720
  O     -504.613    -338.904    -716.952
  O     -506.939    -338.860    -715.840
  H     -501.969    -334.346    -711.349
  H     -504.636    -339.842    -716.682
  H     -503.215    -341.627    -712.123
  H     -504.351    -339.414    -712.395
  H     -504.006    -336.821    -710.164
  H     -501.666    -336.415    -711.815
  H     -502.906    -336.672    -713.847
  H     -505.212    -335.214    -712.432
  H     -500.297    -341.952    -709.842
  H     -506.578    -336.805    -713.837
  H     -501.367    -342.821    -710.918
  H     -505.745    -335.527    -714.762
  P     -503.320    -334.398    -715.283
  C     -500.916    -335.137    -715.912
  O     -501.860    -334.066    -715.891
  O     -504.040    -332.961    -715.337
  O     -504.114    -335.469    -716.008
  H     -504.337    -332.768    -716.234
  H     -500.051    -334.807    -716.505
  H     -501.367    -336.002    -716.417
  H     -500.625    -335.378    -714.894
  H     -507.428    -335.664    -718.100
  H     -507.796    -336.165    -716.467
  H     -507.911    -337.313    -717.780

 3  4  5  6  7  8  9  10  11  12  13  21  23  27  28  29  30  32 0
 6-311+G(2d,p)
 ****
 34  35 0
 6-311+G(2d,p)
 ****
 1  2  14  15  16  17  18  19  20  22  24  25  26 0
 3-21G
 ****
 31  33  36  37  38  39  40  41  42  43  44  45  46 0
 3-21G
 ****


