%nproc=1
%NoSave
%Mem=1900MB
#P OB98/GEN NMR

erre ene a

0 1
  C     -163.000       3.083    -300.840
  O     -161.618       3.325    -300.671
  H     -163.179       2.794    -301.881
  H     -163.572       3.989    -300.628
  H     -163.335       2.268    -300.191
  P     -161.061       3.603    -299.194
  C     -160.551       6.049    -299.832
  O     -161.214       5.177    -298.925
  C     -161.444       7.240    -300.163
  O     -162.784       6.781    -300.462
  C     -161.603       8.231    -299.011
  O     -160.450       9.033    -298.856
  C     -162.856       8.974    -299.444
  O     -162.547       9.997    -300.402
  C     -163.691       7.851    -300.100
  N     -164.748       7.361    -299.215
  C     -165.991       7.975    -299.345
  O     -166.227       8.868    -300.163
  N     -166.955       7.564    -298.466
  C     -166.756       6.728    -297.399
  O     -167.573       6.585    -296.497
  C     -165.444       6.065    -297.344
  C     -164.510       6.417    -298.234
  O     -159.711       3.037    -298.894
  O     -162.182       2.964    -298.241
  H     -161.871       2.102    -297.910
  H     -163.407      10.338    -300.716
  H     -167.850       8.033    -298.528
  H     -165.271       5.342    -296.558
  H     -163.521       5.966    -298.195
  H     -164.150       8.207    -301.030
  H     -163.353       9.450    -298.598
  H     -161.816       7.686    -298.081
  H     -161.045       7.742    -301.053
  H     -160.323       5.498    -300.752
  H     -159.611       6.385    -299.377
  P     -159.495       8.833    -297.580
  C     -160.623      10.839    -296.427
  O     -160.222       9.475    -296.303
  O     -158.079       9.265    -297.776
  O     -159.575       7.261    -297.280
  H     -158.666       6.909    -297.191
  H     -161.094      11.156    -295.520
  H     -161.313      10.936    -297.239
  H     -159.763      11.448    -296.615

 6  7  8  9  10  11  12  13  14  15  16  27  31  32  33  34  35 0
 6-311+G(2d,p)
 ****
 36  37 0
 6-311+G(2d,p)
 ****
 1  2  3  4  5  17  18  19  20  21  22  23  24  25 0
 3-21G
 ****
 26  28  29  30  38  39  40  41  42  43  44  45 0
 3-21G
 ****


