%nproc=1
%NoSave
%Mem=1900MB
#P OB98/GEN NMR

erre ene a

0 1
  C      448.787     198.134    -891.840
  O      447.690     197.445    -891.280
  H      448.449     199.111    -892.190
  H      449.183     197.569    -892.690
  H      449.571     198.273    -891.090
  P      447.981     195.989    -890.680
  C      448.806     193.865    -891.940
  O      447.900     194.963    -891.920
  C      448.496     192.977    -893.140
  O      448.874     193.655    -894.370
  C      449.260     191.659    -893.160
  O      448.697     190.689    -892.280
  C      449.164     191.276    -894.620
  O      447.932     190.613    -894.920
  C      449.237     192.644    -895.340
  N      452.231     191.992    -899.410
  C      450.940     191.686    -899.180
  N      450.205     191.903    -898.070
  C      450.946     192.525    -897.140
  C      452.274     192.918    -897.220
  C      452.939     192.615    -898.430
  N      454.258     192.903    -898.650
  N      452.691     193.504    -896.040
  C      451.629     193.482    -895.260
  N      450.548     192.912    -895.880
  O      446.649     195.663    -889.840
  O      449.202     195.874    -889.840
  H      448.062     190.185    -895.780
  H      446.812     195.830    -888.890
  H      450.424     191.187    -900.000
  H      451.591     193.869    -894.250
  H      448.517     192.706    -896.160
  H      449.983     190.604    -894.900
  H      450.322     191.845    -892.900
  H      447.399     192.796    -893.190
  H      448.683     193.273    -891.020
  H      449.827     194.245    -892.000
  H      454.687     192.606    -899.510
  H      454.822     193.264    -897.890
  P      449.613     189.440    -891.870
  C      451.036     187.864    -893.380
  O      449.799     188.545    -893.170
  O      448.654     188.567    -890.940
  O      450.896     189.811    -891.170
  H      449.175     188.139    -890.220
  H      450.989     187.313    -894.296
  H      451.215     187.191    -892.568
  H      451.831     188.578    -893.434

 6  7  8  9  10  11  12  13  14  15  25  28  32  33  34  35 0
 6-311+G(2d,p)
 ****
 36  37  40 0
 6-311+G(2d,p)
 ****
 1  2  3  4  5  16  17  18  19  20  21  22  23  24 0
 3-21G
 ****
 26  27  29  30  31  38  39 41  42  43  44  45  46  47  48 0
 3-21G
 ****


