%nproc=1
%NoSave
%Mem=1900MB
#P OB98/GEN NMR

erre ene a

0 1
  C      405.228     -54.132    -475.577
  O      404.521     -53.364    -476.532
  H      405.187     -55.183    -475.876
  H      404.773     -54.027    -474.589
  H      406.273     -53.813    -475.544
  P      404.429     -51.787    -476.257
  C      406.060     -49.818    -476.600
  O      405.817     -51.203    -476.821
  C      407.148     -49.309    -477.542
  O      408.408     -49.928    -477.173
  C      406.882     -49.643    -479.014
  O      407.303     -48.549    -479.826
  C      407.776     -50.843    -479.275
  O      408.128     -50.969    -480.651
  C      408.953     -50.566    -478.343
  N      413.037     -53.460    -479.328
  C      412.672     -52.229    -479.754
  N      411.572     -51.521    -479.427
  C      410.829     -52.191    -478.530
  C      411.066     -53.450    -478.011
  C      412.232     -54.101    -478.449
  N      412.592     -55.362    -478.043
  N      410.048     -53.817    -477.150
  C      409.218     -52.789    -477.142
  N      409.640     -51.789    -477.975
  O      404.092     -51.392    -474.859
  O      403.381     -51.321    -477.373
  H      407.309     -50.896    -481.186
  H      403.566     -51.742    -478.233
  H      413.358     -51.752    -480.455
  H      408.302     -52.727    -476.571
  H      409.696     -49.896    -478.794
  H      407.254     -51.763    -478.977
  H      405.833     -49.866    -479.209
  H      407.269     -48.231    -477.395
  H      406.371     -49.652    -475.561
  H      413.453     -55.750    -478.396
  H      412.015     -55.852    -477.369
  H      405.124     -49.279    -476.771
  P      406.182     -47.586    -480.452
  C      403.992     -46.502    -479.617
  O      405.268     -47.023    -479.259
  O      405.438     -48.127    -481.627
  O      407.034     -46.292    -480.865
  H      406.682     -45.934    -481.701
  H      403.486     -46.162    -478.738
  H      403.413     -47.269    -480.087
  H      404.118     -45.684    -480.295

 6  7  8  9  10  11  12  13  14  15  25  28  32  33  34  35 0
 6-311+G(2d,p)
 ****
 36  39  40 0
 6-311+G(2d,p)
 ****
 1  2  3  4  5  16  17  18  19  20  21  22  23  24 0
 3-21G
 ****
 26  27  29  30  31  37  38  41  42  43  44  45  46  47 0
 3-21G
 ****
 48 0
 3-21G
 ****


