%nproc=1
%NoSave
%Mem=1900MB
#P OB98/GEN NMR

erre ene a

0 1
  C       98.521     318.174     125.412
  O       97.171     318.580     125.368
  P       96.272     318.570     126.694
  C       94.922     316.479     126.032
  O       95.861     317.037     126.945
  C       93.995     315.511     126.759
  O       94.750     314.575     127.571
  C       93.043     316.178     127.743
  O       92.055     317.031     127.211
  C       92.568     314.983     128.553
  O       91.532     314.273     127.877
  C       93.857     314.125     128.622
  N       94.490     314.193     129.938
  C       93.642     314.038     131.027
  O       92.430     313.854     130.928
  N       94.229     314.133     132.260
  C       95.545     314.411     132.501
  O       95.995     314.526     133.633
  C       96.388     314.581     131.310
  C       95.833     314.467     130.100
  O       95.128     319.527     126.692
  O       97.337     318.831     127.863
  H       91.416     313.417     128.333
  H       98.042     318.163     127.926
  H       93.631     314.038     133.065
  H       97.438     314.788     131.467
  H       96.435     314.590     129.205
  H       93.627     313.075     128.407
  H       92.170     315.286     129.528
  H       93.640     316.806     128.418
  H       93.455     314.924     126.009
  H       95.464     315.938     125.252
  H       94.358     317.286     125.550
  P       91.145     317.996     128.113
  C       89.146     316.350     128.011
  O       90.017     317.105     128.823
  O       90.718     319.284     127.492
  O       92.135     318.313     129.338
  H       91.943     319.207     129.677
  H       88.418     315.845     128.653
  H       89.703     315.592     127.453
  H       88.605     317.001     127.318
  H       98.949     318.251     124.434
  H       98.578     317.160     125.748
  H       99.061     318.804     126.088

 3  4  5  6  7  8  9  10  11  12  13  23  28  29  30  31  32 0
 6-311+G(2d,p)
 ****
 33  34 0
 6-311+G(2d,p)
 ****
 1  2  14  15  16  17  18  19  20  21  22  24  25  26  27 0
 3-21G
 ****
 35  36  37  38  39  40  41  42  43  44  45 0
 3-21G
 ****


