%nproc=1
%NoSave
%Mem=1900MB
#P OB98/GEN NMR

erre ene a

0 1
  C      120.891     389.999     -27.589
  O      121.731     389.000     -27.067
  P      121.533     388.458     -25.570
  C      123.016     390.328     -24.605
  O      121.733     389.734     -24.603
  C      123.029     391.558     -23.701
  O      122.240     392.634     -24.273
  C      122.406     391.328     -22.331
  O      123.069     390.438     -21.457
  C      122.213     392.754     -21.848
  O      123.420     393.294     -21.316
  C      121.819     393.472     -23.163
  N      120.390     393.777     -23.222
  C      119.973     394.887     -22.491
  O      120.735     395.591     -21.832
  N      118.627     395.145     -22.520
  C      117.677     394.398     -23.154
  O      116.479     394.663     -23.100
  C      118.176     393.228     -23.890
  C      119.488     392.970     -23.895
  O      122.350     387.275     -25.203
  O      119.949     388.212     -25.479
  H      123.271     394.256     -21.184
  H      119.398     389.001     -25.633
  H      118.306     395.938     -21.988
  H      117.450     392.620     -24.416
  H      119.876     392.111     -24.431
  H      122.374     394.416     -23.255
  H      121.453     392.814     -21.056
  H      121.405     390.889     -22.480
  H      124.055     391.920     -23.625
  H      123.260     390.638     -25.626
  H      123.767     389.594     -24.289
  P      122.321     389.612     -20.302
  C      122.540     391.529     -18.565
  O      121.677     390.657     -19.267
  O      123.054     388.449     -19.729
  O      121.020     389.074     -21.083
  H      120.758     388.217     -20.700
  H      121.940     392.135     -17.888
  H      123.059     392.199     -19.264
  H      123.269     390.963     -17.986
  H      121.183     390.221     -28.594
  H      120.972     390.882     -26.990
  H      119.878     389.654     -27.580

 3  4  5  6  7  8  9  10  11  12  13  23  28  29  30  31  32 0
 6-311+G(2d,p)
 ****
 33  34 0
 6-311+G(2d,p)
 ****
 1  2  14  15  16  17  18  19  20  21  22  24  25  26  27 0
 3-21G
 ****
 35  36  37  38  39  40  41  42  43  44  45 0
 3-21G
 ****


