%nproc=1
%NoSave
%Mem=1900MB
#P OB98/GEN NMR

erre ene a

0 1
  C       -5.160      18.983      24.912
  O       -5.596      17.667      25.188
  P       -4.565      16.446      25.237
  C       -4.129      16.449      22.712
  O       -4.609      15.699      23.820
  C       -4.319      15.687      21.400
  O       -4.102      16.590      20.284
  C       -3.374      14.490      21.227
  O       -4.120      13.451      20.583
  C       -2.302      15.031      20.300
  O       -1.611      13.999      19.610
  C       -3.135      15.966      19.416
  N       -2.320      16.955      18.729
  C       -1.929      16.655      17.423
  O       -2.161      15.543      16.947
  N       -1.273      17.619      16.698
  C       -0.876      18.704      17.289
  N       -0.290      19.661      16.519
  C       -1.054      18.941      18.736
  C       -1.814      18.058      19.379
  O       -4.709      15.544      26.418
  O       -3.124      17.147      25.230
  H       -2.600      16.813      25.985
  H       -1.186      13.407      20.267
  H       -0.598      19.798      19.207
  H       -2.027      18.158      20.437
  H       -3.696      15.390      18.668
  H       -1.569      15.603      20.880
  H       -2.982      14.118      22.178
  H       -5.363      15.353      21.349
  H       -0.221      19.481      15.526
  H       -3.063      16.636      22.864
  H       -0.242      20.637      16.813
  H       -4.637      17.419      22.671
  P       -3.890      11.936      21.066
  C       -2.414      11.234      19.050
  O       -3.617      11.041      19.764
  O       -5.384      11.495      21.465
  O       -2.975      11.737      22.230
  H       -5.338      10.776      22.122
  H       -2.428      10.593      18.165
  H       -1.555      10.955      19.669
  H       -2.317      12.274      18.729
  H       -5.999      19.647      24.926
  H       -4.699      19.011      23.947
  H       -4.452      19.287      25.655

 3  4  5  6  7  8  9  10  11  12  13  24  27  28  29  30  32 0
 6-311+G(2d,p)
 ****
 34  35 0
 6-311+G(2d,p)
 ****
 1  2  14  15  16  17  18  19  20  21  22  23  25  26 0
 3-21G
 ****
 31  33  36  37  38  39  40  41  42  43  44  45  46 0
 3-21G
 ****


