%nproc=1
%NoSave
%Mem=1900MB
#P OB98/GEN NMR

erre ene a

0 1
  C      -90.093      35.411      54.941
  O      -90.904      36.416      55.516
  H      -90.664      34.479      54.900
  H      -89.203      35.252      55.556
  H      -89.799      35.692      53.926
  P      -90.321      37.907      55.514
  C      -91.655      38.581      57.673
  O      -90.396      38.449      57.025
  C      -91.489      38.382      59.178
  O      -91.100      37.029      59.486
  C      -90.385      39.226      59.793
  O      -90.713      40.595      59.855
  C      -90.254      38.558      61.154
  O      -91.293      38.989      62.043
  C      -90.438      37.066      60.780
  N      -89.179      36.336      60.763
  C      -88.550      36.178      62.004
  O      -89.067      36.633      63.024
  N      -87.338      35.535      62.049
  C      -86.813      35.068      60.961
  N      -85.608      34.450      61.073
  C      -87.454      35.189      59.638
  C      -88.620      35.833      59.612
  O      -91.478      38.734      54.784
  O      -88.969      38.061      54.900
  H      -91.325      38.332      62.767
  H      -92.356      38.613      55.184
  H      -86.984      34.776      58.757
  H      -89.157      35.966      58.682
  H      -91.109      36.570      61.492
  H      -89.305      38.793      61.637
  H      -89.444      39.070      59.251
  H      -92.458      38.578      59.655
  H      -85.187      34.403      61.993
  H      -92.380      37.870      57.267
  H      -85.089      34.077      60.292
  H      -92.029      39.589      57.465
  P      -89.641      41.710      59.433
  C      -91.219      43.538      60.326
  O      -89.912      42.976      60.384
  O      -89.595      42.027      57.976
  O      -88.264      41.137      60.017
  H      -88.255      41.005      60.982
  H      -91.280      44.369      60.997
  H      -91.938      42.798      60.608
  H      -91.421      43.870      59.329

 6  7  8  9  10  11  12  13  14  15  16  26  30  31  32  33  35 0
 6-311+G(2d,p)
 ****
 37  38 0
 6-311+G(2d,p)
 ****
 1  2  3  4  5  17  18  19  20  21  22  23  24  25 0
 3-21G
 ****
 27  28  29  34  36  39  40  41  42  43  44  45  46 0
 3-21G
 ****


