%nproc=1
%NoSave
%Mem=1900MB
#P OB98/GEN NMR

erre ene a

0 1
  C      100.015      39.068      33.726
  O       99.465      38.308      32.664
  P       97.919      38.521      32.303
  C       98.442      39.629      30.014
  O       97.814      39.755      31.281
  C       97.782      40.550      28.986
  O       96.445      40.066      28.689
  C       97.645      42.000      29.460
  O       97.784      42.882      28.336
  C       96.207      42.085      29.926
  O       95.727      43.429      29.903
  C       95.526      41.151      28.926
  N       90.902      42.441      30.503
  C       91.839      43.195      29.827
  N       91.532      44.494      29.621
  N       92.973      42.718      29.386
  C       93.148      41.404      29.670
  C       92.285      40.549      30.319
  C       91.040      41.094      30.811
  O       90.181      40.487      31.441
  N       92.796      39.279      30.387
  C       93.982      39.369      29.821
  N       94.256      40.646      29.403
  O       97.312      39.107      33.664
  O       97.200      37.283      31.887
  H       95.583      43.662      28.966
  H       96.791      38.419      34.117
  H       90.047      42.858      30.832
  H       94.687      38.556      29.712
  H       95.350      41.650      27.966
  H       96.121      41.709      30.952
  H       90.706      44.938      29.993
  H       98.356      42.292      30.240
  H       92.222      45.079      29.168
  H       98.355      40.500      28.053
  H       98.356      38.597      29.675
  H       99.506      39.871      30.106
  P       98.248      44.382      28.672
  C      100.684      43.912      27.886
  O       99.824      44.302      28.937
  O       97.630      44.641      30.124
  O       97.805      45.398      27.674
  H       97.492      45.596      30.267
  H      101.355      44.743      27.650
  H      100.134      43.632      26.983
  H      101.280      43.057      28.213
  H      101.048      38.817      33.846
  H       99.487      38.850      34.631
  H       99.925      40.111      33.503

 3  4  5  6  7  8  9  10  11  12  23  26  30  31 0
 6-311+G(2d,p)
 ****
 33  35  36  37  38 0
 6-311+G(2d,p)
 ****
 1  2  13  14  15  16  17  18  19  20  21  22  24  25 0
 3-21G
 ****
 27  28  29  32  34  39  40  41  42  43  44  45  46  47  48  49 0
 3-21G
 ****


