%nproc=1
%NoSave
%Mem=1900MB
#P OB98/GEN NMR

erre ene a

0 1
  C       31.376      66.255     -11.518
  O       30.986      64.952     -11.133
  H       30.520      66.755     -11.978
  H       32.184      66.204     -12.250
  H       31.696      66.839     -10.651
  P       31.994      64.073     -10.251
  C       33.119      62.957     -12.285
  O       33.289      63.804     -11.156
  C       34.360      62.090     -12.477
  O       35.482      62.907     -12.871
  C       34.805      61.356     -11.217
  O       33.968      60.245     -10.956
  C       36.239      61.007     -11.585
  O       36.282      59.850     -12.434
  C       36.676      62.275     -12.358
  N       37.452      63.207     -11.542
  C       38.713      62.777     -11.141
  O       39.160      61.663     -11.410
  N       39.441      63.670     -10.400
  C       39.005      64.887      -9.960
  O       39.679      65.629      -9.251
  C       37.653      65.274     -10.384
  C       36.950      64.431     -11.144
  O       31.410      62.856      -9.615
  O       32.534      65.109      -9.153
  H       35.893      59.114     -11.921
  H       32.060      64.972      -8.312
  H       40.351      63.372     -10.089
  H       37.273      66.230     -10.050
  H       35.948      64.697     -11.462
  H       37.282      61.998     -13.229
  H       36.854      60.781     -10.714
  H       34.820      62.043     -10.363
  H       34.158      61.380     -13.289
  H       32.968      63.581     -13.174
  H       32.232      62.336     -12.130
  P       33.488      59.915      -9.467
  C       35.276      58.087      -9.329
  O       34.724      59.236      -8.699
  O       32.203      59.162      -9.364
  O       33.373      61.350      -8.770
  H       32.432      61.595      -8.667
  H       36.088      57.713      -8.741
  H       35.633      58.351     -10.303
  H       34.523      57.332      -9.417

 6  7  8  9  10  11  12  13  14  15  16  26  31  32  33  34  35 0
 6-311+G(2d,p)
 ****
 36  37 0
 6-311+G(2d,p)
 ****
 1  2  3  4  5  17  18  19  20  21  22  23  24  25 0
 3-21G
 ****
 27  28  29  30  38  39  40  41  42  43  44  45 0
 3-21G
 ****


