%nproc=1
%NoSave
%Mem=1900MB
#P OB98/GEN NMR

erre ene a

0 1
  C      -70.560      74.255      86.545
  O      -70.282      74.295      85.161
  H      -69.717      74.695      87.082
  H      -70.690      73.224      86.884
  H      -71.457      74.838      86.769
  P      -71.321      73.597      84.154
  C      -69.880      71.444      84.133
  O      -71.142      72.023      84.430
  C      -70.039      69.953      83.843
  O      -68.755      69.320      83.667
  C      -70.714      69.154      84.954
  O      -72.114      69.369      85.033
  C      -70.367      67.741      84.511
  O      -71.209      67.362      83.407
  C      -68.900      67.923      84.052
  N      -67.930      67.576      85.090
  C      -67.614      66.218      85.224
  O      -68.140      65.378      84.493
  N      -66.736      65.836      86.210
  C      -66.233      66.728      87.004
  N      -65.406      66.291      87.995
  C      -66.525      68.170      86.888
  C      -67.375      68.521      85.925
  O      -71.231      74.011      82.720
  O      -72.755      73.876      84.808
  H      -70.777      66.609      82.966
  H      -73.436      73.474      84.215
  H      -66.085      68.871      87.582
  H      -67.651      69.559      85.787
  H      -68.694      67.321      83.160
  H      -70.508      66.995      85.297
  H      -70.236      69.345      85.920
  H      -70.578      69.856      82.893
  H      -65.262      65.293      88.071
  H      -69.218      71.610      84.988
  H      -65.203      66.868      88.804
  H      -69.446      71.922      83.249
  P      -72.746      69.681      86.477
  C      -73.721      67.294      86.856
  O      -72.793      68.285      87.269
  O      -74.280      69.977      86.138
  O      -72.100      70.795      87.241
  H      -74.436      70.933      86.023
  H      -73.624      66.432      87.482
  H      -73.523      67.021      85.840
  H      -74.715      67.682      86.934

 6  7  8  9  10  11  12  13  14  15  16  26  30  31  32  33  35 0
 6-311+G(2d,p)
 ****
 37  38 0
 6-311+G(2d,p)
 ****
 1  2  3  4  5  17  18  19  20  21  22  23  24  25 0
 3-21G
 ****
 27  28  29  34  36  39  40  41  42  43  44  45  46 0
 3-21G
 ****


