%nproc=1
%NoSave
%Mem=1900MB
#P OB98/GEN NMR

erre ene a

0 1
  C       33.924     760.475    -889.240
  O       34.964     759.826    -889.970
  P       34.827     758.242    -890.190
  C       34.016     758.524    -892.650
  O       33.717     758.054    -891.340
  C       34.523     757.370    -893.510
  O       33.524     756.316    -893.570
  C       34.791     757.747    -894.970
  O       36.062     758.355    -895.130
  C       34.747     756.378    -895.640
  O       36.035     755.717    -895.460
  C       33.664     755.633    -894.840
  N       31.060     753.839    -898.810
  C       32.395     753.645    -898.460
  N       33.125     752.842    -899.260
  N       32.961     754.196    -897.410
  C       32.100     754.955    -896.670
  C       30.771     755.219    -896.930
  C       30.176     754.649    -898.110
  O       29.021     754.835    -898.520
  N       30.231     756.015    -895.950
  C       31.220     756.192    -895.080
  N       32.372     755.588    -895.510
  O       34.076     757.745    -888.860
  O       36.118     757.517    -890.400
  H       36.208     755.717    -894.500
  H       34.291     756.808    -888.690
  H       30.699     753.380    -899.620
  H       31.124     756.754    -894.150
  H       33.962     754.601    -894.600
  H       34.564     756.433    -896.710
  H       32.708     752.285    -900.000
  H       33.979     758.361    -895.370
  H       34.092     752.652    -898.980
  H       35.424     756.943    -893.060
  H       34.811     759.279    -892.580
  H       33.128     758.959    -893.080
  P       36.434     758.853    -896.630
  C       36.341     761.369    -895.890
  O       35.811     760.343    -896.730
  O       35.461     757.977    -897.550
  O       37.859     758.705    -896.980
  H       35.849     757.881    -898.450
  H       37.418     761.236    -895.740
  H       35.817     761.321    -894.920
  H       36.152     762.325    -896.360
  H       34.138     761.521    -889.167
  H       33.861     760.054    -888.258
  H       32.992     760.336    -889.747

 3  4  5  6  7  8  9  10  11  12  23  26  30  31  33  0
 6-311+G(2d,p)
 ****
 35  36  37  38 0
 6-311+G(2d,p)
 ****
 1  2  13  14  15  16  17  18  19  20  21  22  24  25  27  28  29 0
 3-21G
 ****
 32  34  39  40  41  42  43  44  45  46  47  48  49 0
 3-21G
 ****


