%nproc=1
%NoSave
%Mem=1900MB
#P OB98/GEN NMR

erre ene a

0 1
  C       36.770       6.935      10.666
  O       37.161       7.293       9.351
  P       36.626       8.638       8.653
  C       34.659       7.635       7.306
  O       35.056       8.404       8.429
  C       33.396       8.227       6.677
  O       32.302       8.094       7.622
  C       33.510       9.710       6.305
  O       32.740       9.910       5.115
  C       32.860      10.405       7.486
  O       32.406      11.713       7.169
  C       31.748       9.408       7.831
  N       31.262       9.563       9.197
  C       30.201      10.443       9.414
  O       29.711      11.084       8.485
  N       29.713      10.581      10.689
  C       30.288       9.963      11.673
  N       29.729      10.086      12.908
  C       31.478       9.109      11.503
  C       31.890       8.939      10.251
  O       37.375       9.050       7.434
  O       36.635       9.722       9.825
  H       31.921      12.065       7.939
  H       37.516      10.158       9.940
  H       31.939       8.637      12.359
  H       32.741       8.310      10.028
  H       30.914       9.514       7.128
  H       33.583      10.489       8.304
  H       34.542      10.023       6.125
  H       33.138       7.630       5.794
  H       28.820      10.535      12.953
  H       34.441       6.618       7.644
  H       29.910       9.401      13.633
  H       35.477       7.591       6.580
  P       33.388      10.775       3.927
  C       31.949      12.872       4.439
  O       33.243      12.324       4.305
  O       32.285      10.610       2.770
  O       34.719      10.323       3.425
  H       32.715      10.731       1.903
  H       32.043      13.928       4.705
  H       31.397      12.363       5.233
  H       31.401      12.795       3.497
  H       37.236       6.011      10.937
  H       35.707       6.823      10.704
  H       37.072       7.701      11.349

 3  4  5  6  7  8  9  10  11  12  13  23  27  28  29  30  32 0
 6-311+G(2d,p)
 ****
 34  35 0
 6-311+G(2d,p)
 ****
 1  2  14  15  16  17  18  19  20  21  22  24  25  26 0
 3-21G
 ****
 31  33  36  37  38  39  40  41  42  43  44  45  46 0
 3-21G
 ****


