%nproc=1
%NoSave
%Mem=1900MB
#P OB98/GEN NMR

erre ene a

0 1
  C      121.810      -8.323    -214.032
  O      122.490      -9.562    -213.940
  P      122.400     -10.357    -212.547
  C      120.353     -11.691    -213.430
  O      120.880     -10.853    -212.407
  C      120.175     -13.128    -212.935
  O      119.303     -13.122    -211.779
  C      119.577     -14.077    -213.975
  O      120.204     -15.351    -213.816
  C      118.123     -14.187    -213.558
  O      117.532     -15.401    -214.019
  C      118.240     -14.063    -212.030
  N      116.988     -13.632    -211.417
  C      116.028     -14.621    -211.176
  O      116.226     -15.776    -211.553
  N      114.850     -14.267    -210.566
  C      114.607     -13.019    -210.316
  N      113.427     -12.718    -209.708
  C      115.542     -11.931    -210.666
  C      116.707     -12.306    -211.186
  O      122.508      -9.188    -211.461
  O      123.447     -11.404    -212.358
  H      118.013     -16.152    -213.604
  H      122.953      -9.503    -210.653
  H      115.274     -10.902    -210.470
  H      117.463     -11.580    -211.452
  H      118.533     -15.023    -211.587
  H      117.552     -13.347    -213.968
  H      119.713     -13.723    -215.000
  H      121.153     -13.498    -212.601
  H      112.799     -13.482    -209.493
  H      121.049     -11.704    -214.272
  H      113.154     -11.774    -209.477
  H      119.401     -11.281    -213.779
  P      120.185     -16.351    -215.068
  C      122.727     -16.048    -215.253
  O      121.485     -15.967    -215.924
  O      119.014     -15.716    -215.964
  O      119.943     -17.800    -214.815
  H      118.855     -16.280    -216.742
  H      123.528     -15.895    -215.981
  H      122.850     -17.030    -214.791
  H      122.790     -15.263    -214.493
  H      121.955      -7.908    -215.008
  H      122.196      -7.649    -213.297
  H      120.765      -8.476    -213.861

 3  4  5  6  7  8  9  10  11  12  13  21  23  27  28  29  30  32 0
 6-311+G(2d,p)
 ****
 34  35 0
 6-311+G(2d,p)
 ****
 1  2  14  15  16  17  18  19  20  22  24  25  26 0
 3-21G
 ****
 31  33  36  37  38  39  40  41  42  43  44  45  46 0
 3-21G
 ****


