%nproc=1
%NoSave
%Mem=1900MB
#P OB98/GEN NMR

erre ene a

0 1
  C       65.232    -274.558     110.248
  O       66.653    -274.669     110.400
  P       67.437    -273.388     110.964
  C       66.792    -273.636     113.490
  O       66.630    -272.930     112.272
  C       67.308    -272.695     114.578
  O       66.363    -271.622     114.813
  C       67.510    -273.357     115.935
  O       68.675    -274.171     115.942
  C       67.568    -272.137     116.845
  O       68.874    -271.548     116.801
  C       66.541    -271.197     116.184
  N       65.270    -271.146     116.896
  C       65.343    -270.787     118.248
  O       66.403    -270.554     118.819
  N       64.152    -270.740     118.913
  C       62.922    -271.029     118.387
  O       61.883    -270.948     119.035
  C       62.915    -271.449     116.982
  C       64.068    -271.485     116.308
  O       67.066    -272.292     109.859
  O       68.896    -273.632     111.148
  H       66.165    -272.393     109.513
  H       68.814    -270.696     117.291
  H       64.181    -270.471     119.887
  H       61.965    -271.710     116.538
  H       64.085    -271.797     115.271
  H       66.942    -270.176     116.135
  H       67.359    -272.386     117.888
  H       66.630    -273.972     116.183
  H       68.249    -272.252     114.228
  H       67.511    -274.452     113.355
  H       65.834    -274.086     113.771
  P       68.460    -275.744     115.706
  C       68.980    -275.672     113.142
  O       68.044    -275.919     114.168
  O       67.096    -275.996     116.502
  O       69.610    -276.586     116.162
  H       66.428    -275.314     116.343
  H       68.640    -276.165     112.235
  H       69.970    -276.056     113.407
  H       69.045    -274.594     112.959
  H       64.841    -275.478     109.866
  H       65.007    -273.765     109.566
  H       64.787    -274.348     111.198

 3  4  5  6  7  8  9  10  11  12  13  24  28  29  30  31  32 0
 6-311+G(2d,p)
 ****
 33  34 0
 6-311+G(2d,p)
 ****
 1  2  14  15  16  17  18  19  20  21  22  23  25  26  27 0
 3-21G
 ****
 35  36  37  38  39  40  41  42  43  44  45 0
 3-21G
 ****


