%nproc=1
%NoSave
%Mem=1900MB
#P OB98/GEN NMR

erre ene a

0 1
  C     -736.932     235.245    -369.915
  O     -738.121     235.339    -369.156
  P     -738.193     236.490    -368.034
  C     -737.450     234.771    -366.222
  O     -737.212     236.030    -366.847
  C     -736.226     234.332    -365.435
  O     -735.131     234.015    -366.334
  C     -735.667     235.395    -364.486
  O     -736.392     235.441    -363.267
  C     -734.254     234.870    -364.258
  O     -734.280     233.808    -363.277
  C     -733.887     234.318    -365.639
  N     -729.197     235.872    -366.751
  C     -729.621     234.752    -366.050
  N     -728.642     233.981    -365.515
  N     -730.879     234.430    -365.878
  C     -731.723     235.306    -366.468
  C     -731.426     236.438    -367.194
  C     -730.038     236.792    -367.357
  O     -729.611     237.796    -367.922
  N     -732.580     237.064    -367.631
  C     -733.560     236.315    -367.169
  N     -733.107     235.260    -366.427
  O     -739.657     236.299    -367.400
  O     -737.978     237.888    -368.546
  H     -734.862     234.118    -362.549
  H     -739.906     237.103    -366.901
  H     -728.217     236.076    -366.841
  H     -734.606     236.500    -367.346
  H     -733.325     233.379    -365.566
  H     -733.584     235.642    -363.880
  H     -727.658     234.211    -365.559
  H     -735.621     236.373    -364.982
  H     -728.919     233.191    -364.941
  H     -736.476     233.414    -364.891
  H     -737.682     234.014    -366.992
  H     -738.318     234.848    -365.564
  P     -736.950     236.881    -362.823
  C     -734.930     237.798    -361.479
  O     -735.662     237.814    -362.682
  O     -737.408     236.633    -361.308
  O     -738.072     237.399    -363.679
  H     -738.123     237.255    -361.066
  H     -733.966     238.280    -361.654
  H     -734.764     236.768    -361.122
  H     -735.473     238.375    -360.715
  H     -737.020     234.443    -370.618
  H     -736.106     235.057    -369.262
  H     -736.770     236.163    -370.439

 3  4  5  6  7  8  9  10  11  12  23  26  30  31 0
 6-311+G(2d,p)
 ****
 33  35  36  37  38 0
 6-311+G(2d,p)
 ****
 1  2  13  14  15  16  17  18  19  20  21  22  24  25 0
 3-21G
 ****
 27  28  29  32  34  39  40  41  42  43  44  45  46  47  48  49 0
 3-21G
 ****


