%nproc=1
%NoSave
%Mem=1900MB
#P OB98/GEN NMR

erre ene a

0 1
  C     -715.208     267.822    -506.205
  O     -715.747     268.664    -505.213
  H     -715.699     266.845    -506.150
  H     -714.130     267.686    -506.033
  H     -715.370     268.247    -507.203
  P     -715.287     270.198    -505.205
  C     -712.980     269.677    -504.107
  O     -714.224     270.355    -504.005
  C     -712.279     269.641    -502.748
  O     -711.960     271.002    -502.342
  C     -713.120     269.008    -501.636
  O     -712.247     268.226    -500.790
  C     -713.650     270.197    -500.864
  O     -713.967     269.866    -499.506
  C     -712.511     271.217    -501.037
  N     -712.992     272.586    -500.865
  C     -713.404     272.932    -499.580
  O     -713.371     272.122    -498.652
  N     -713.913     274.195    -499.365
  C     -714.080     275.005    -500.380
  N     -714.612     276.226    -500.108
  C     -713.724     274.641    -501.767
  C     -713.180     273.433    -501.938
  O     -716.578     270.979    -504.651
  O     -714.811     270.727    -506.516
  H     -714.650     269.164    -499.520
  H     -716.638     271.868    -505.045
  H     -713.897     275.347    -502.574
  H     -712.902     273.079    -502.915
  H     -711.725     271.029    -500.304
  H     -714.574     270.556    -501.350
  H     -713.911     268.348    -502.013
  H     -711.316     269.121    -502.863
  H     -714.857     276.436    -499.156
  H     -712.348     270.217    -504.823
  H     -714.812     276.905    -500.820
  H     -713.154     268.661    -504.481
  P     -712.371     266.647    -500.883
  C     -713.802     266.452    -498.721
  O     -712.605     266.070    -499.399
  O     -710.891     266.162    -501.245
  O     -713.363     266.177    -501.918
  H     -710.844     265.863    -502.175
  H     -713.824     265.998    -497.752
  H     -714.651     266.128    -499.286
  H     -713.828     267.517    -498.616

 6  7  8  9  10  11  12  13  14  15  16  26  30  31  32  33  35 0
 6-311+G(2d,p)
 ****
 37  38 0
 6-311+G(2d,p)
 ****
 1  2  3  4  5  17  18  19  20  21  22  23  24  25 0
 3-21G
 ****
 27  28  29  34  36  39  40  41  42  43  44  45  46 0
 3-21G
 ****


