%nproc=1
%NoSave
%Mem=1900MB
#P OB98/GEN NMR

erre ene a

0 1
  C      235.461     156.216     -55.726
  O      235.778     155.016     -55.051
  H      236.391     156.746     -55.949
  H      234.835     156.859     -55.101
  H      234.951     155.999     -56.667
  P      234.571     154.108     -54.506
  C      235.184     152.333     -56.292
  O      234.177     153.181     -55.761
  C      234.548     151.140     -57.001
  O      235.558     150.249     -57.522
  C      233.676     150.258     -56.113
  O      232.422     150.840     -55.798
  C      233.541     149.035     -57.006
  O      232.601     149.309     -58.059
  C      234.981     148.914     -57.568
  N      235.808     147.973     -56.816
  C      235.603     146.612     -57.075
  O      234.763     146.251     -57.899
  N      236.332     145.686     -56.367
  C      237.173     146.083     -55.465
  N      237.834     145.124     -54.758
  C      237.434     147.504     -55.173
  C      236.722     148.387     -55.871
  O      233.431     154.835     -53.868
  O      235.276     153.050     -53.534
  H      232.905     150.115     -58.514
  H      234.567     152.471     -53.161
  H      238.142     147.782     -54.406
  H      236.845     149.451     -55.701
  H      234.962     148.607     -58.620
  H      233.186     148.148     -56.475
  H      234.212     149.967     -55.203
  H      233.987     151.526     -57.861
  H      237.600     144.160     -54.956
  H      235.824     152.005     -55.466
  H      238.282     145.336     -53.874
  H      235.794     152.880     -57.017
  P      231.456     150.044     -54.789
  C      231.422     151.762     -52.832
  O      231.864     150.502     -53.305
  O      232.001     148.544     -54.886
  O      229.992     150.144     -55.080
  H      231.496     148.029     -55.545
  H      231.777     151.913     -51.834
  H      230.352     151.790     -52.838
  H      231.803     152.535     -53.467

 6  7  8  9  10  11  12  13  14  15  16  26  30  31  32  33  35 0
 6-311+G(2d,p)
 ****
 37  38 0
 6-311+G(2d,p)
 ****
 1  2  3  4  5  17  18  19  20  21  22  23  24  25 0
 3-21G
 ****
 27  28  29  34  36  39  40  41  42  43  44  45  46 0
 3-21G
 ****


