%nproc=1
%NoSave
%Mem=1900MB
#P OB98/GEN NMR

erre ene a

0 1
  C      244.424     582.904     121.732
  O      243.339     582.067     122.090
  H      244.880     583.299     122.648
  H      244.064     583.743     121.131
  H      245.178     582.343     121.172
  P      242.667     581.195     120.926
  C      241.070     579.146     120.889
  O      241.594     580.232     121.636
  C      240.326     578.184     121.820
  O      241.308     577.402     122.562
  C      239.419     578.877     122.851
  O      238.249     578.075     123.051
  C      240.257     578.860     124.114
  O      239.504     578.965     125.310
  C      240.977     577.518     123.961
  N      242.181     577.425     124.792
  C      242.015     577.534     126.175
  O      240.925     577.607     126.746
  N      243.174     577.547     126.912
  C      244.442     577.493     126.414
  O      245.440     577.535     127.124
  C      244.557     577.396     124.947
  C      243.438     577.365     124.218
  O      243.843     580.196     120.498
  O      242.131     581.972     119.769
  H      244.384     580.588     119.791
  H      240.132     578.893     126.059
  H      243.071     577.621     127.908
  H      245.547     577.362     124.519
  H      243.486     577.316     123.132
  H      240.299     576.694     124.207
  H      240.980     579.693     124.098
  H      239.118     579.893     122.569
  H      239.747     577.475     121.214
  H      241.889     578.609     120.401
  H      240.384     579.530     120.121
  P      236.848     578.662     122.535
  C      234.700     577.557     121.497
  O      236.041     577.400     121.951
  O      237.314     579.473     121.228
  O      236.142     579.468     123.566
  H      238.047     579.045     120.759
  H      234.330     576.616     121.146
  H      234.675     578.270     120.700
  H      234.088     577.902     122.304

 6  7  8  9  10  11  12  13  14  15  16  27  31  32  33  34  35 0
 6-311+G(2d,p)
 ****
 36  37 0
 6-311+G(2d,p)
 ****
 1  2  3  4  5  17  18  19  20  21  22  23  24  25 0
 3-21G
 ****
 26  28  29  30  38  39  40  41  42  43  44  45 0
 3-21G
 ****


