%nproc=1
%NoSave
%Mem=1900MB
#P OB98/GEN NMR

erre ene a

0 1
  C      702.349     751.405    -143.309
  O      701.022     751.481    -143.804
  P      700.059     750.207    -143.692
  C      698.374     751.016    -141.924
  O      699.470     750.150    -142.207
  C      697.083     750.221    -141.755
  O      697.210     749.276    -140.666
  C      695.886     751.076    -141.400
  O      695.403     751.823    -142.512
  C      694.899     749.997    -140.896
  O      694.275     749.327    -141.988
  C      695.861     749.052    -140.160
  N      695.810     749.208    -138.708
  C      694.899     748.348    -138.046
  O      694.160     747.602    -138.670
  N      694.863     748.403    -136.675
  C      695.566     749.289    -136.030
  N      695.526     749.252    -134.676
  C      696.397     750.296    -136.709
  C      696.498     750.175    -138.038
  O      700.639     748.924    -144.189
  O      698.772     750.634    -144.559
  H      698.576     749.905    -145.201
  H      693.677     749.974    -142.413
  H      696.910     751.052    -136.133
  H      697.112     750.860    -138.623
  H      695.630     748.004    -140.411
  H      694.113     750.424    -140.265
  H      696.124     751.758    -140.581
  H      696.901     749.667    -142.670
  H      694.961     748.518    -134.233
  H      698.260     751.719    -142.760
  H      696.275     749.648    -134.084
  H      698.597     751.592    -141.015
  P      694.893     753.309    -142.210
  C      696.796     754.328    -143.652
  O      696.144     754.301    -142.396
  O      694.636     753.302    -140.647
  O      693.681     753.706    -142.974
  H      693.847     753.859    -140.447
  H      697.367     755.281    -143.716
  H      696.088     754.297    -144.473
  H      697.506     753.488    -143.726
  H      702.843     752.341    -143.467
  H      702.878     750.631    -143.825
  H      702.327     751.185    -142.262

 3  4  5  6  7  8  9  10  11  12  13  24  27  28  29  30  32 0
 6-311+G(2d,p)
 ****
 34  35 0
 6-311+G(2d,p)
 ****
 1  2  14  15  16  17  18  19  20  21  22  23  25  26 0
 3-21G
 ****
 31  33  36  37  38  39  40  41  42  43  44  45  46 0
 3-21G
 ****


