%nproc=1
%NoSave
%Mem=1900MB
#P OB98/GEN NMR

erre ene a

0 1
  C      309.971     917.480    -777.360
  O      308.915     916.909    -776.614
  H      310.456     918.242    -776.743
  H      309.580     917.951    -778.262
  H      310.706     916.718    -777.626
  P      308.157     915.649    -777.258
  C      308.961     913.933    -775.480
  O      308.995     914.339    -776.844
  C      310.042     912.889    -775.213
  O      309.694     911.659    -775.893
  C      311.427     913.313    -775.688
  O      312.410     912.857    -774.734
  C      311.621     912.557    -776.988
  O      312.994     912.343    -777.322
  C      310.813     911.277    -776.723
  N      310.372     910.647    -777.964
  C      311.087     909.507    -778.372
  O      312.038     909.104    -777.708
  N      310.746     908.913    -779.555
  C      309.842     909.453    -780.322
  N      309.576     908.826    -781.502
  C      309.108     910.682    -779.954
  C      309.429     911.222    -778.777
  O      308.465     915.789    -778.824
  O      306.694     915.560    -776.962
  H      313.342     911.630    -776.729
  H      307.718     915.448    -779.364
  H      308.385     911.100    -780.630
  H      308.944     912.131    -778.430
  H      311.419     910.557    -776.152
  H      311.157     913.130    -777.814
  H      311.538     914.393    -775.813
  H      310.051     912.670    -774.134
  H      310.103     907.991    -781.714
  H      307.981     913.489    -775.268
  H      308.919     909.176    -782.182
  H      309.095     914.815    -774.830
  P      313.798     913.636    -774.708
  C      313.205     914.282    -772.247
  O      313.752     914.706    -773.488
  O      313.748     914.567    -776.009
  O      314.995     912.749    -774.718
  H      314.358     914.221    -776.692
  H      313.242     915.090    -771.546
  H      313.772     913.457    -771.871
  H      312.188     913.980    -772.390

 6  7  8  9  10  11  12  13  14  15  16  26  30  31  32  33  35 0
 6-311+G(2d,p)
 ****
 37  38 0
 6-311+G(2d,p)
 ****
 1  2  3  4  5  17  18  19  20  21  22  23  24  25 0
 3-21G
 ****
 27  28  29  34  36  39  40  41  42  43  44  45  46 0
 3-21G
 ****


