%nproc=1
%NoSave
%Mem=1900MB
#P OB98/GEN NMR

erre ene a

0 1
  C       57.657     527.122    -395.411
  O       58.385     528.325    -395.135
  P       57.624     529.415    -394.236
  C       57.837     528.233    -391.919
  O       58.226     529.327    -392.741
  C       58.908     527.932    -390.878
  O       60.085     527.330    -391.450
  C       59.398     529.183    -390.138
  O       58.482     529.543    -389.112
  C       60.741     528.695    -389.571
  O       60.569     527.964    -388.345
  C       61.245     527.752    -390.686
  N       66.154     527.785    -391.935
  C       65.516     527.179    -390.869
  N       66.294     526.457    -390.038
  N       64.234     527.260    -390.655
  C       63.577     528.013    -391.564
  C       64.095     528.634    -392.685
  C       65.520     528.521    -392.918
  O       66.132     529.020    -393.868
  N       63.109     529.255    -393.411
  C       62.035     529.111    -392.677
  N       62.233     528.317    -391.574
  O       56.148     528.816    -394.087
  O       57.615     530.776    -394.844
  H       61.431     527.616    -388.058
  H       55.522     529.360    -394.592
  H       67.155     527.678    -392.058
  H       61.055     529.543    -392.897
  H       61.694     526.835    -390.255
  H       61.409     529.527    -389.366
  H       67.285     526.333    -390.142
  H       59.562     529.993    -390.830
  H       65.845     526.005    -389.242
  H       58.483     527.226    -390.151
  H       57.659     527.352    -392.530
  H       56.885     528.493    -391.442
  P       57.993     531.068    -389.044
  C       55.471     530.456    -389.189
  O       56.509     531.070    -388.448
  O       57.784     531.446    -390.589
  O       58.953     531.994    -388.385
  H       58.169     532.341    -390.780
  H       54.697     530.069    -388.505
  H       55.840     529.608    -389.802
  H       55.004     531.192    -389.859
  H       58.257     526.472    -396.014
  H       56.756     527.363    -395.935
  H       57.415     526.632    -394.491

 3  4  5  6  7  8  9  10  11  12  23  26  30  31 0
 6-311+G(2d,p)
 ****
 33  35  36  37  38 0
 6-311+G(2d,p)
 ****
 1  2  13  14  15  16  17  18  19  20  21  22  24  25 0
 3-21G
 ****
 27  28  29  32  34  39  40  41  42  43  44  45  46  47  48  49 0
 3-21G
 ****


