%nproc=1
%NoSave
%Mem=1900MB
#P OB98/GEN NMR

erre ene a

0 1
  C      174.817     251.891     152.324
  O      173.987     251.690     153.458
  P      174.260     250.393     154.363
  C      175.603     251.716     156.134
  O      175.622     250.677     155.166
  C      175.291     251.161     157.520
  O      176.102     249.976     157.746
  C      175.577     252.140     158.671
  O      174.497     252.086     159.616
  C      176.806     251.550     159.341
  O      176.899     251.930     160.710
  C      176.561     250.060     159.109
  N      178.903     247.036     162.408
  C      177.614     247.533     162.426
  N      176.865     247.220     163.506
  N      177.105     248.268     161.475
  C      177.957     248.474     160.441
  C      179.252     248.030     160.303
  C      179.822     247.266     161.393
  O      180.985     246.877     161.477
  N      179.791     248.428     159.105
  C      178.828     249.113     158.521
  N      177.712     249.210     159.313
  O      174.675     249.286     153.283
  O      173.106     249.938     155.187
  H      176.897     252.907     160.737
  H      174.092     248.510     153.365
  H      179.251     246.489     163.176
  H      178.904     249.582     157.549
  H      175.758     249.698     159.764
  H      177.703     251.900     158.819
  H      177.182     246.629     164.258
  H      175.734     253.175     158.350
  H      175.909     247.556     163.530
  H      174.243     250.838     157.539
  H      174.836     252.448     155.861
  H      176.579     252.213     156.140
  P      174.259     253.413     160.489
  C      172.312     254.125     158.911
  O      173.552     254.459     159.507
  O      175.735     254.002     160.675
  O      173.572     253.166     161.790
  H      175.782     254.558     161.475
  H      171.886     253.210     159.336
  H      172.461     253.981     157.839
  H      171.609     254.948     159.069
  H      174.522     252.787     151.820
  H      174.719     251.059     151.658
  H      175.836     251.978     152.639

 3  4  5  6  7  8  9  10  11  12  23  26  30  31  33  0
 6-311+G(2d,p)
 ****
 35  36  37  38 0
 6-311+G(2d,p)
 ****
 1  2  13  14  15  16  17  18  19  20  21  22  24  25  27  28  29 0
 3-21G
 ****
 32  34  39  40  41  42  43  44  45  46  47  48  49 0
 3-21G
 ****


