%nproc=1
%NoSave
%Mem=1900MB
#P OB98/GEN NMR

erre ene a

0 1
  C     -108.903    -197.438     311.384
  O     -108.662    -197.143     312.747
  H     -108.366    -198.356     311.119
  H     -108.526    -196.621     310.760
  H     -109.971    -197.587     311.199
  P     -109.586    -196.025     313.427
  C     -108.241    -193.842     313.027
  O     -109.335    -194.651     312.621
  C     -108.413    -192.412     312.512
  O     -108.501    -192.446     311.060
  C     -109.678    -191.714     313.041
  O     -109.373    -190.337     313.291
  C     -110.652    -191.813     311.872
  O     -111.639    -190.785     311.894
  C     -109.699    -191.748     310.677
  N     -113.077    -191.001     307.000
  C     -112.645    -190.154     308.000
  N     -113.205    -188.921     308.035
  N     -111.748    -190.481     308.899
  C     -111.248    -191.732     308.718
  C     -111.593    -192.670     307.772
  C     -112.610    -192.306     306.801
  O     -113.047    -193.017     305.905
  N     -110.888    -193.833     307.944
  C     -110.115    -193.599     308.992
  N     -110.294    -192.339     309.493
  O     -108.871    -195.768     314.840
  O     -111.022    -196.396     313.604
  H     -112.060    -190.764     311.005
  H     -109.462    -196.043     315.563
  H     -113.780    -190.698     306.344
  H     -109.424    -194.311     309.431
  H     -109.428    -190.707     310.418
  H     -111.166    -192.783     311.906
  H     -113.867    -188.586     307.352
  H     -110.075    -192.173     313.948
  H     -112.876    -188.270     308.739
  H     -107.515    -191.840     312.763
  H     -107.315    -194.272     312.615
  H     -108.177    -193.840     314.121
  P     -109.299    -189.879     314.832
  C     -111.662    -188.798     314.817
  O     -110.806    -189.773     315.397
  O     -108.829    -188.350     314.735
  O     -108.358    -190.693     315.661
  H     -107.902    -188.271     315.032
  H     -112.622    -188.842     315.287
  H     -111.768    -188.994     313.770
  H     -111.240    -187.825     314.957

 6  7  8  9  10  11  12  13  14  15  26  29  33  34 0
 6-311+G(2d,p)
 ****
 36  38  39  40  41 0
 6-311+G(2d,p)
 ****
 1  2  3  4  5  16  17  18  19  20  21  22  23  24  25 0
 3-21G
 ****
 27  28  30  31  32  35  37  42  43  44  45  46  47 0
 3-21G
 ****
 48  49 0
 3-21G
 ****


