%nproc=1
%NoSave
%Mem=1900MB
#P OB98/GEN NMR

erre ene a

0 1
  C      108.370     358.468    -331.778
  O      107.403     357.779    -331.007
  H      108.096     358.439    -332.837
  H      108.402     359.510    -331.451
  H      109.359     358.020    -331.634
  P      107.222     356.215    -331.317
  C      104.702     356.435    -331.900
  O      105.679     355.878    -331.031
  C      104.134     355.351    -332.814
  O      105.152     354.887    -333.720
  C      103.630     354.105    -332.090
  O      102.336     354.305    -331.539
  C      103.603     353.105    -333.235
  O      102.425     353.314    -334.033
  C      104.857     353.494    -334.028
  N      107.453     349.237    -335.184
  C      106.363     349.812    -335.745
  N      105.747     350.956    -335.393
  C      106.372     351.540    -334.358
  C      107.501     351.088    -333.695
  C      108.049     349.872    -334.146
  N      109.125     349.261    -333.517
  N      107.843     351.948    -332.671
  C      106.924     352.886    -332.699
  N      106.021     352.686    -333.708
  O      107.999     355.519    -330.098
  O      107.748     355.763    -332.637
  H      102.502     352.721    -334.807
  H      108.901     355.283    -330.386
  H      105.931     349.275    -336.584
  H      106.873     353.723    -332.019
  H      104.697     353.431    -335.115
  H      103.585     352.066    -332.895
  H      104.342     353.761    -331.331
  H      103.333     355.804    -333.415
  H      105.161     357.217    -332.510
  H      109.123     348.246    -333.605
  H      109.352     349.642    -332.607
  H      103.905     356.874    -331.292
  P      102.102     353.890    -330.008
  C      101.623     351.349    -330.108
  O      101.076     352.659    -330.021
  O      101.237     355.104    -329.443
  O      103.349     353.688    -329.204
  H      101.680     355.499    -328.662
  H      100.830     350.631    -330.107
  H      102.264     351.174    -329.269
  H      102.186     351.257    -331.013

 6  7  8  9  10  11  12  13  14  15  25  28  32  33  34  35 0
 6-311+G(2d,p)
 ****
 36  39  40 0
 6-311+G(2d,p)
 ****
 1  2  3  4  5  16  17  18  19  20  21  22  23  24 0
 3-21G
 ****
 26  27  29  30  31  37  38  41  42  43  44  45  46  47  48 0
 3-21G
 ****


