%nproc=1
%NoSave
%Mem=1900MB
#P OB98/GEN NMR

erre ene a

0 1
  C      339.135    -247.595    -221.233
  O      339.172    -247.725    -219.804
  P      339.524    -246.418    -218.942
  C      337.331    -246.030    -217.590
  O      338.160    -245.618    -218.670
  C      337.362    -245.002    -216.465
  O      336.636    -243.806    -216.826
  C      336.712    -245.493    -215.180
  O      337.581    -246.367    -214.483
  C      336.434    -244.187    -214.440
  O      337.534    -243.798    -213.608
  C      336.229    -243.170    -215.595
  N      334.863    -242.681    -215.679
  C      334.650    -241.378    -215.201
  O      335.578    -240.736    -214.726
  N      333.378    -240.861    -215.262
  C      332.397    -241.590    -215.723
  N      331.168    -241.022    -215.748
  C      332.580    -242.964    -216.213
  C      333.832    -243.446    -216.158
  O      340.300    -245.491    -219.988
  O      340.353    -246.701    -217.735
  H      337.591    -244.474    -212.906
  H      340.969    -244.958    -219.530
  H      331.739    -243.539    -216.581
  H      334.056    -244.457    -216.498
  H      336.895    -242.307    -215.461
  H      335.556    -244.274    -213.793
  H      335.757    -245.995    -215.413
  H      338.408    -244.731    -216.274
  H      331.082    -240.073    -215.408
  H      337.649    -247.008    -217.216
  H      330.336    -241.501    -216.083
  H      336.302    -246.162    -217.979
  P      336.934    -247.608    -213.708
  C      337.368    -249.050    -215.796
  O      336.403    -248.588    -214.874
  O      335.559    -246.983    -213.165
  O      337.735    -248.240    -212.626
  H      335.107    -247.621    -212.584
  H      336.936    -249.865    -216.394
  H      338.250    -249.448    -215.264
  H      337.669    -248.242    -216.468
  H      338.889    -248.540    -221.671
  H      340.093    -247.276    -221.587
  H      338.395    -246.872    -221.506

 3  4  5  6  7  8  9  10  11  12  13  21  23  27  28  29  30  32 0
 6-311+G(2d,p)
 ****
 34  35 0
 6-311+G(2d,p)
 ****
 1  2  14  15  16  17  18  19  20  22  24  25  26 0
 3-21G
 ****
 31  33  36  37  38  39  40  41  42  43  44  45  46 0
 3-21G
 ****


