%nproc=1
%NoSave
%Mem=1900MB
#P OB98/GEN NMR

erre ene a

0 1
  C     1144.219    -204.367    -309.771
  O     1145.004    -204.209    -310.947
  P     1145.090    -202.731    -311.584
  C     1144.388    -204.052    -313.718
  O     1144.344    -202.824    -313.015
  C     1143.433    -204.012    -314.911
  O     1142.065    -203.931    -314.455
  C     1143.604    -202.810    -315.833
  O     1144.662    -203.002    -316.761
  C     1142.281    -202.787    -316.552
  O     1142.250    -203.767    -317.613
  C     1141.290    -203.211    -315.450
  N     1137.492    -199.873    -315.870
  C     1137.747    -201.041    -316.596
  N     1136.898    -201.318    -317.593
  N     1138.739    -201.846    -316.339
  C     1139.510    -201.440    -315.305
  C     1139.352    -200.332    -314.523
  C     1138.257    -199.420    -314.810
  O     1138.022    -198.357    -314.239
  N     1140.338    -200.258    -313.542
  C     1141.073    -201.331    -313.748
  N     1140.657    -202.058    -314.831
  O     1146.619    -202.594    -311.987
  O     1144.644    -201.626    -310.682
  H     1141.345    -203.788    -317.970
  H     1146.846    -201.668    -312.154
  H     1136.710    -199.275    -316.132
  H     1141.942    -201.609    -313.154
  H     1140.498    -203.882    -315.810
  H     1142.033    -201.819    -317.027
  H     1136.158    -200.693    -317.879
  H     1143.732    -201.877    -315.259
  H     1137.098    -202.113    -318.185
  H     1143.541    -204.952    -315.478
  H     1144.126    -204.880    -313.047
  H     1145.412    -204.220    -314.082
  P     1145.569    -201.696    -317.074
  C     1147.318    -203.345    -318.077
  O     1146.555    -202.172    -318.270
  O     1146.527    -201.623    -315.775
  O     1144.800    -200.435    -317.310
  H     1146.831    -200.683    -315.649
  H     1147.717    -203.662    -319.045
  H     1146.687    -204.152    -317.690
  H     1148.144    -203.173    -317.407
  H     1144.248    -205.390    -309.457
  H     1143.207    -204.086    -309.977
  H     1144.611    -203.744    -308.994

 3  4  5  6  7  8  9  10  11  12  23  26  30  31 0
 6-311+G(2d,p)
 ****
 33  35  36  37  38 0
 6-311+G(2d,p)
 ****
 1  2  13  14  15  16  17  18  19  20  21  22  24  25 0
 3-21G
 ****
 27  28  29  32  34  39  40  41  42  43  44  45  46  47  48  49 0
 3-21G
 ****


