%nproc=1
%NoSave
%Mem=1900MB
#P OB98/GEN NMR

erre ene a

0 1
  C     -155.846    -153.573     335.093
  O     -155.581    -153.072     333.803
  H     -156.812    -153.183     335.423
  H     -155.082    -153.235     335.798
  H     -155.892    -154.665     335.079
  P     -154.196    -153.446     333.079
  C     -153.653    -151.671     331.301
  O     -154.336    -152.889     331.576
  C     -154.350    -150.884     330.184
  O     -154.277    -151.640     328.949
  C     -155.835    -150.605     330.467
  O     -156.129    -149.233     330.189
  C     -156.565    -151.493     329.466
  O     -157.867    -151.020     329.149
  C     -155.562    -151.507     328.309
  N     -155.825    -152.584     327.367
  C     -156.502    -152.221     326.189
  O     -156.828    -151.049     326.003
  N     -156.841    -153.199     325.294
  C     -156.567    -154.442     325.563
  N     -156.951    -155.363     324.644
  C     -155.889    -154.864     326.801
  C     -155.544    -153.899     327.647
  O     -153.805    -154.881     333.194
  O     -153.115    -152.449     333.723
  H     -158.211    -151.535     328.388
  H     -152.217    -152.839     333.606
  H     -155.686    -155.916     326.984
  H     -155.033    -154.115     328.585
  H     -155.573    -150.553     327.767
  H     -156.660    -152.500     329.887
  H     -156.125    -150.826     331.495
  H     -153.795    -149.953     330.018
  H     -157.422    -155.025     323.818
  H     -152.621    -151.911     331.019
  H     -156.818    -156.361     324.754
  H     -153.654    -151.069     332.219
  P     -156.492    -148.315     331.456
  C     -158.562    -146.893     330.795
  O     -157.151    -146.954     330.913
  O     -155.061    -147.861     332.005
  O     -157.276    -149.034     332.501
  H     -154.873    -148.300     332.860
  H     -158.848    -145.931     330.423
  H     -159.007    -147.051     331.755
  H     -158.896    -147.651     330.118

 6  7  8  9  10  11  12  13  14  15  16  26  30  31  32  33  35 0
 6-311+G(2d,p)
 ****
 37  38 0
 6-311+G(2d,p)
 ****
 1  2  3  4  5  17  18  19  20  21  22  23  24  25 0
 3-21G
 ****
 27  28  29  34  36  39  40  41  42  43  44  45  46 0
 3-21G
 ****


