%nproc=1
%NoSave
%Mem=1900MB
#P OB98/GEN NMR

erre ene a

0 1
  C       60.605    -121.021    -359.526
  O       60.664    -119.642    -359.192
  H       59.550    -121.317    -359.578
  H       61.090    -121.617    -358.754
  H       61.074    -121.204    -360.494
  P       62.098    -118.927    -359.143
  C       61.631    -118.094    -361.535
  O       62.567    -118.726    -360.672
  C       61.602    -116.592    -361.274
  O       62.962    -116.090    -361.257
  C       60.830    -115.796    -362.346
  O       60.121    -114.734    -361.701
  C       61.927    -115.227    -363.226
  O       61.520    -114.027    -363.883
  C       63.060    -115.019    -362.215
  N       66.477    -112.127    -364.564
  C       65.281    -111.783    -363.948
  N       64.935    -110.476    -363.992
  N       64.504    -112.646    -363.355
  C       64.986    -113.910    -363.383
  C       66.146    -114.377    -363.954
  C       66.989    -113.421    -364.622
  O       68.054    -113.672    -365.187
  N       66.265    -115.747    -363.789
  C       65.182    -116.095    -363.122
  N       64.370    -115.022    -362.861
  O       63.116    -119.579    -358.263
  O       61.767    -117.433    -358.658
  H       60.726    -114.251    -364.432
  H       61.948    -117.330    -357.712
  H       67.032    -111.422    -365.014
  H       64.931    -117.095    -362.811
  H       62.967    -114.062    -361.688
  H       62.209    -115.956    -363.993
  H       65.500    -109.755    -364.415
  H       60.127    -116.417    -362.911
  H       64.075    -110.194    -363.528
  H       61.180    -116.411    -360.282
  H       60.637    -118.528    -361.345
  H       61.908    -118.293    -362.578
  P       58.570    -114.932    -361.362
  C       58.723    -115.701    -358.915
  O       58.432    -116.082    -360.258
  O       57.664    -115.068    -362.545
  O       58.214    -113.602    -360.533
  H       57.272    -113.375    -360.686
  H       58.598    -116.545    -358.270
  H       58.057    -114.920    -358.614
  H       59.733    -115.352    -358.854

 6  7  8  9  10  11  12  13  14  15  26  29  33  34 0
 6-311+G(2d,p)
 ****
 36  38  39  40  41 0
 6-311+G(2d,p)
 ****
 1  2  3  4  5  16  17  18  19  20  21  22  23  24  25 0
 3-21G
 ****
 27  28  30  31  32  35  37  42  43  44  45  46  47 0
 3-21G
 ****
 48  49 0
 3-21G
 ****


