%nproc=1
%NoSave
%Mem=1900MB
#P OB98/GEN NMR

erre ene a

0 1
  C      217.827     641.795    -308.066
  O      216.568     641.606    -307.409
  P      215.350     640.926    -308.209
  C      215.428     638.572    -307.127
  O      215.611     639.347    -308.309
  C      214.257     637.598    -307.315
  O      214.569     636.585    -308.313
  C      213.936     636.807    -306.048
  O      213.370     637.537    -304.985
  C      213.144     635.633    -306.597
  O      211.767     635.976    -306.795
  C      213.846     635.390    -307.950
  N      214.729     634.219    -307.918
  C      214.147     632.993    -308.210
  O      212.943     632.859    -308.440
  N      214.984     631.911    -308.195
  C      216.318     631.927    -307.888
  O      217.018     630.923    -307.863
  C      216.875     633.249    -307.563
  C      216.073     634.318    -307.587
  O      214.957     641.596    -309.481
  O      214.148     641.003    -307.145
  H      211.452     636.407    -305.982
  H      213.334     641.242    -307.630
  H      214.576     631.013    -308.409
  H      217.925     633.302    -307.303
  H      216.467     635.304    -307.349
  H      213.102     635.217    -308.745
  H      213.166     634.780    -305.906
  H      214.881     636.403    -305.656
  H      213.389     638.154    -307.669
  H      215.240     639.230    -306.280
  H      216.358     638.039    -306.908
  P      214.021     637.599    -303.512
  C      215.160     639.930    -303.644
  O      215.326     638.530    -303.586
  O      214.139     636.313    -302.756
  O      212.987     638.556    -302.747
  H      212.943     638.272    -301.807
  H      216.142     640.400    -303.706
  H      214.642     640.301    -302.760
  H      214.589     640.204    -304.542
  H      218.516     642.257    -307.390
  H      217.692     642.423    -308.922
  H      218.213     640.847    -308.376

 3  4  5  6  7  8  9  10  11  12  13  23  28  29  30  31  32 0
 6-311+G(2d,p)
 ****
 33  34 0
 6-311+G(2d,p)
 ****
 1  2  14  15  16  17  18  19  20  21  22  24  25  26  27 0
 3-21G
 ****
 35  36  37  38  39  40  41  42  43  44  45 0
 3-21G
 ****


