%nproc=1
%NoSave
%Mem=1900MB
#P OB98/GEN NMR

erre ene a

0 1
  C     -734.022    -345.503     174.552
  O     -734.450    -346.849     174.376
  P     -735.636    -347.380     175.331
  C     -735.878    -347.698     177.893
  O     -735.094    -347.166     176.833
  C     -735.052    -348.657     178.735
  O     -733.810    -348.025     179.114
  C     -735.704    -349.078     180.048
  O     -736.654    -350.121     179.856
  C     -734.495    -349.576     180.834
  O     -734.179    -350.927     180.444
  C     -733.388    -348.609     180.371
  N     -731.103    -347.341     184.709
  C     -731.138    -348.559     184.049
  N     -730.443    -349.564     184.609
  N     -731.800    -348.759     182.932
  C     -732.413    -347.645     182.469
  C     -732.452    -346.387     183.037
  C     -731.771    -346.185     184.292
  O     -731.757    -345.162     184.968
  N     -733.181    -345.513     182.263
  C     -733.536    -346.225     181.211
  N     -733.120    -347.541     181.316
  O     -735.567    -348.965     175.137
  O     -736.992    -346.829     175.025
  H     -733.296    -351.123     180.802
  H     -736.439    -349.359     175.329
  H     -730.564    -347.233     185.562
  H     -734.086    -345.831     180.363
  H     -732.446    -349.147     180.176
  H     -734.664    -349.582     181.916
  H     -729.803    -349.437     185.391
  H     -736.151    -348.228     180.564
  H     -730.422    -350.457     184.121
  H     -734.810    -349.542     178.125
  H     -736.735    -348.245     177.473
  H     -736.259    -346.871     178.505
  P     -738.017    -350.011     180.695
  C     -738.650    -350.395     183.189
  O     -737.619    -350.336     182.211
  O     -738.842    -351.291     180.220
  O     -738.770    -348.739     180.469
  H     -739.806    -351.139     180.328
  H     -739.566    -350.820     182.779
  H     -738.843    -349.393     183.566
  H     -738.297    -351.020     184.019
  H     -733.236    -345.285     173.859
  H     -733.663    -345.371     175.551
  H     -734.845    -344.841     174.378

 3  4  5  6  7  8  9  10  11  12  23  26  30  31  33  0
 6-311+G(2d,p)
 ****
 35  36  37  38 0
 6-311+G(2d,p)
 ****
 1  2  13  14  15  16  17  18  19  20  21  22  24  25  27  28  29 0
 3-21G
 ****
 32  34  39  40  41  42  43  44  45  46  47  48  49 0
 3-21G
 ****


