%nproc=1
%NoSave
%Mem=1900MB
#P OB98/GEN NMR

erre ene a

0 1
  C      533.109    -384.202     -23.542
  O      534.525    -384.132     -23.647
  P      535.209    -384.932     -24.865
  C      536.871    -383.411     -26.205
  O      536.653    -384.272     -25.082
  C      537.770    -382.250     -25.800
  O      537.062    -381.362     -24.902
  C      539.034    -382.663     -25.060
  O      540.034    -383.064     -25.987
  C      539.392    -381.382     -24.300
  O      540.054    -380.449     -25.164
  C      537.994    -380.863     -23.901
  N      538.756    -380.220     -18.942
  C      539.490    -379.760     -20.020
  N      540.566    -378.978     -19.736
  N      539.202    -380.046     -21.265
  C      538.131    -380.849     -21.406
  C      537.324    -381.374     -20.406
  C      537.629    -381.017     -19.038
  O      536.946    -381.311     -18.055
  N      536.329    -382.169     -20.930
  C      536.512    -382.081     -22.232
  N      537.566    -381.282     -22.570
  O      534.362    -384.455     -26.135
  O      535.227    -386.422     -24.702
  H      540.336    -379.664     -24.652
  H      533.681    -385.127     -26.362
  H      539.015    -379.958     -18.002
  H      535.885    -382.560     -22.980
  H      537.945    -379.767     -23.931
  H      540.053    -381.565     -23.456
  H      540.855    -378.739     -18.797
  H      538.829    -383.469     -24.347
  H      541.109    -378.640     -20.510
  H      538.017    -381.674     -26.710
  H      535.913    -383.029     -26.552
  H      537.335    -383.998     -27.010
  P      540.810    -384.448     -25.688
  C      540.999    -384.931     -28.241
  O      541.662    -384.797     -26.998
  O      539.632    -385.538     -25.697
  O      541.562    -384.469     -24.399
  H      539.820    -386.229     -25.024
  H      541.683    -384.647     -29.043
  H      540.103    -384.298     -28.283
  H      540.697    -385.974     -28.377
  H      532.785    -383.631     -22.697
  H      532.810    -385.222     -23.419
  H      532.665    -383.805     -24.431

 3  4  5  6  7  8  9  10  11  12  23  26  30  31 0
 6-311+G(2d,p)
 ****
 33  35  36  37  38 0
 6-311+G(2d,p)
 ****
 1  2  13  14  15  16  17  18  19  20  21  22  24  25 0
 3-21G
 ****
 27  28  29  32  34  39  40  41  42  43  44  45  46  47  48  49 0
 3-21G
 ****


