%nproc=1
%NoSave
%Mem=1900MB
#P OB98/GEN NMR

erre ene a

0 1
  C      257.975    -418.898    -421.741
  O      256.652    -418.355    -421.895
  P      256.224    -417.078    -421.019
  C      255.632    -415.736    -423.187
  O      256.314    -415.768    -421.940
  C      255.845    -414.380    -423.869
  O      255.388    -413.307    -423.013
  C      257.299    -414.055    -424.174
  O      257.770    -414.759    -425.312
  C      257.232    -412.546    -424.382
  O      256.803    -412.228    -425.717
  C      256.159    -412.132    -423.355
  N      256.729    -411.505    -422.167
  C      257.113    -410.174    -422.292
  O      257.047    -409.551    -423.352
  N      257.618    -409.589    -421.164
  C      257.830    -410.209    -419.963
  O      258.304    -409.632    -418.993
  C      257.483    -411.636    -419.916
  C      256.962    -412.210    -421.001
  O      257.495    -416.893    -420.057
  O      254.971    -417.229    -420.218
  H      257.527    -412.502    -426.314
  H      257.211    -416.473    -419.223
  H      257.875    -408.616    -421.225
  H      257.658    -412.169    -418.990
  H      256.696    -413.263    -420.981
  H      255.450    -411.432    -423.811
  H      258.201    -412.060    -424.231
  H      257.922    -414.267    -423.301
  H      255.242    -414.363    -424.786
  H      254.562    -415.885    -423.014
  H      256.004    -416.547    -423.818
  P      258.566    -416.127    -425.030
  C      256.868    -417.173    -426.722
  O      257.577    -417.296    -425.508
  O      258.528    -416.180    -423.430
  O      259.935    -416.141    -425.623
  H      257.711    -415.793    -423.070
  H      257.444    -416.625    -427.470
  H      255.923    -416.653    -426.539
  H      256.658    -418.173    -427.106
  H      258.094    -419.738    -422.393
  H      258.117    -419.210    -420.727
  H      258.699    -418.150    -421.988

 3  4  5  6  7  8  9  10  11  12  13  23  28  29  30  31  32 0
 6-311+G(2d,p)
 ****
 33  34 0
 6-311+G(2d,p)
 ****
 1  2  14  15  16  17  18  19  20  21  22  24  25  26 0
 3-21G
 ****
 27  35  36  37  38  39  40  41  42  43  44  45 0
 3-21G
 ****


