%nproc=1
%NoSave
%Mem=1900MB
#P OB98/GEN NMR

erre ene a

0 1
  C       44.001    -145.062    -154.538
  O       43.678    -144.084    -155.508
  H       43.237    -145.843    -154.559
  H       44.005    -144.604    -153.543
  H       44.975    -145.516    -154.747
  P       44.827    -143.025    -155.877
  C       43.636    -141.319    -154.320
  O       44.857    -141.952    -154.681
  C       43.892    -139.882    -153.889
  O       44.643    -139.845    -152.653
  C       44.688    -139.053    -154.901
  O       43.850    -138.524    -155.920
  C       45.222    -137.949    -154.004
  O       44.171    -136.992    -153.734
  C       45.562    -138.719    -152.718
  N       50.058    -138.296    -150.401
  C       48.902    -137.559    -150.230
  N       48.950    -136.563    -149.319
  N       47.793    -137.776    -150.894
  C       47.900    -138.787    -151.790
  C       48.991    -139.584    -152.053
  C       50.204    -139.344    -151.305
  O       51.250    -139.977    -151.408
  N       48.724    -140.509    -153.034
  C       47.473    -140.256    -153.374
  N       46.930    -139.218    -152.651
  O       44.178    -142.215    -157.103
  O       46.145    -143.617    -156.256
  H       44.512    -136.372    -153.064
  H       44.574    -142.532    -157.935
  H       50.884    -138.079    -149.870
  H       46.913    -140.795    -154.123
  H       45.402    -138.113    -151.813
  H       46.044    -137.395    -154.457
  H       49.774    -136.325    -148.789
  H       45.529    -139.627    -155.317
  H       48.112    -136.010    -149.176
  H       42.918    -139.407    -153.688
  H       43.177    -141.874    -153.486
  H       42.954    -141.339    -155.177
  P       44.165    -138.921    -157.444
  C       46.290    -137.436    -157.430
  O       45.743    -138.728    -157.665
  O       43.517    -137.712    -158.263
  O       43.608    -140.237    -157.887
  H       42.734    -138.027    -158.762
  H       47.344    -137.456    -157.615
  H       46.112    -137.153    -156.414
  H       45.826    -136.728    -158.084

 6  7  8  9  10  11  12  13  14  15  26  29  33  34 0
 6-311+G(2d,p)
 ****
 36  38  39  40  41 0
 6-311+G(2d,p)
 ****
 1  2  3  4  5  16  17  18  19  20  21  22  23  24  25 0
 3-21G
 ****
 27  28  30  31  32  35  37  42  43  44  45  46  47 0
 3-21G
 ****
 48  49 0
 3-21G
 ****


