%nproc=1
%NoSave
%Mem=1900MB
#P OB98/GEN NMR

erre ene a

0 1
  C      326.445    -267.247    -256.816
  O      327.285    -268.357    -256.581
  H      325.794    -267.108    -255.947
  H      325.823    -267.431    -257.694
  H      327.036    -266.338    -256.960
  P      328.461    -268.610    -257.645
  C      328.483    -268.743    -260.238
  O      327.745    -268.949    -259.042
  C      327.618    -269.064    -261.453
  O      326.353    -268.369    -261.368
  C      328.237    -268.661    -262.786
  O      329.160    -269.633    -263.258
  C      326.997    -268.607    -263.667
  O      326.595    -269.945    -264.020
  C      325.966    -267.981    -262.712
  N      323.312    -264.027    -264.459
  C      323.078    -265.383    -264.594
  N      321.987    -265.736    -265.304
  N      323.849    -266.310    -264.084
  C      324.910    -265.810    -263.411
  C      325.250    -264.488    -263.203
  C      324.385    -263.478    -263.766
  O      324.534    -262.261    -263.655
  N      326.393    -264.373    -262.459
  C      326.759    -265.621    -262.233
  N      325.896    -266.529    -262.791
  O      329.075    -270.019    -257.195
  O      329.511    -267.551    -257.700
  H      327.358    -270.356    -264.472
  H      330.039    -270.006    -257.347
  H      322.697    -263.354    -264.882
  H      327.635    -265.914    -261.668
  H      324.954    -268.360    -262.888
  H      327.163    -268.061    -264.595
  H      321.380    -265.073    -265.764
  H      328.691    -267.661    -262.736
  H      321.778    -266.723    -265.388
  H      327.402    -270.140    -261.437
  H      329.361    -269.397    -260.235
  H      328.814    -267.701    -260.275
  P      330.257    -269.158    -264.331
  C      330.077    -267.905    -266.599
  O      329.430    -268.732    -265.638
  O      330.951    -270.536    -264.767
  O      331.247    -268.165    -263.822
  H      331.845    -270.360    -265.119
  H      329.406    -267.706    -267.408
  H      330.947    -268.404    -266.971
  H      330.365    -266.982    -266.140

 6  7  8  9  10  11  12  13  14  15  26  29  33  34 0
 6-311+G(2d,p)
 ****
 36  38  39  40  41 0
 6-311+G(2d,p)
 ****
 1  2  3  4  5  16  17  18  19  20  21  22  23  24  25 0
 3-21G
 ****
 27  28  30  31  32  35  37  42  43  44  45  46  47 0
 3-21G
 ****
 48  49 0
 3-21G
 ****


