%nproc=1
%NoSave
%Mem=1900MB
#P OB98/GEN NMR

erre ene a

0 1
  C      244.052    -402.975    -290.966
  O      244.460    -404.110    -291.719
  P      245.353    -403.858    -293.030
  C      247.282    -405.585    -292.831
  O      246.852    -404.246    -292.616
  C      247.751    -406.214    -291.523
  O      246.721    -406.107    -290.516
  C      248.080    -407.702    -291.611
  O      249.387    -407.929    -292.133
  C      248.017    -408.101    -290.153
  O      249.234    -407.716    -289.479
  C      246.838    -407.259    -289.635
  N      244.252    -411.090    -287.450
  C      245.521    -410.661    -287.294
  N      246.140    -409.636    -287.915
  C      245.319    -409.061    -288.819
  C      244.008    -409.423    -289.119
  C      243.466    -410.488    -288.377
  N      242.167    -410.915    -288.522
  N      243.492    -408.603    -290.100
  C      244.466    -407.765    -290.389
  N      245.587    -407.991    -289.627
  O      245.405    -402.253    -293.129
  O      244.833    -404.479    -294.281
  H      249.122    -407.947    -288.536
  H      245.588    -401.984    -294.046
  H      246.110    -411.187    -286.557
  H      244.399    -406.967    -291.116
  H      247.006    -406.881    -288.619
  H      247.907    -409.181    -290.009
  H      247.312    -408.245    -292.182
  H      248.626    -405.648    -291.169
  H      248.107    -405.587    -293.544
  H      241.799    -411.551    -287.828
  H      241.533    -410.328    -289.061
  H      246.444    -406.167    -293.253
  P      249.482    -408.520    -293.618
  C      251.136    -406.778    -294.601
  O      249.805    -407.262    -294.563
  O      247.956    -408.873    -293.966
  O      250.380    -409.696    -293.755
  H      247.916    -409.586    -294.637
  H      251.251    -406.142    -295.495
  H      251.854    -407.595    -294.665
  H      251.344    -406.167    -293.722
  H      243.468    -403.294    -290.128
  H      243.465    -402.329    -291.585
  H      244.916    -402.448    -290.619

 3  4  5  6  7  8  9  10  11  12  22  25  29  30  31  32 0
 6-311+G(2d,p)
 ****
 33  36  37 0
 6-311+G(2d,p)
 ****
 1  2  13  14  15  16  17  18  19  20  21  23  24  26 0
 3-21G
 ****
 27  28  34  35  38  39  40  41  42  43  44  45  46  47  48 0
 3-21G
 ****


