%nproc=1
%NoSave
%Mem=1900MB
#P OB98/GEN NMR

erre ene a

0 1
  C     -294.117    -236.668      17.651
  O     -294.811    -235.770      18.492
  H     -293.604    -236.097      16.874
  H     -294.823    -237.353      17.175
  H     -293.375    -237.235      18.221
  P     -295.445    -236.364      19.839
  C     -297.288    -234.543      19.620
  O     -296.357    -235.199      20.467
  C     -298.158    -233.590      20.440
  O     -298.813    -234.352      21.493
  C     -297.375    -232.455      21.113
  O     -298.190    -231.279      21.106
  C     -297.221    -232.945      22.541
  O     -297.006    -231.907      23.487
  C     -298.553    -233.677      22.740
  N     -298.512    -234.623      23.852
  C     -298.701    -234.113      25.133
  O     -298.981    -232.945      25.388
  N     -298.553    -235.016      26.154
  C     -298.222    -236.333      26.026
  O     -298.084    -237.086      26.982
  C     -298.027    -236.810      24.649
  C     -298.176    -235.947      23.643
  O     -294.191    -236.427      20.829
  O     -296.131    -237.682      19.699
  H     -293.737    -237.286      20.750
  H     -296.063    -231.651      23.433
  H     -298.685    -234.664      27.088
  H     -297.752    -237.847      24.509
  H     -298.019    -236.261      22.617
  H     -299.363    -232.956      22.898
  H     -296.379    -233.643      22.607
  H     -296.409    -232.239      20.647
  H     -298.948    -233.191      19.793
  H     -297.930    -235.288      19.141
  H     -296.744    -233.994      18.845
  P     -297.438    -229.862      21.050
  C     -298.606    -228.191      22.696
  O     -298.556    -228.768      21.398
  O     -297.200    -229.701      19.479
  O     -296.205    -229.824      21.887
  H     -297.924    -230.071      18.944
  H     -299.411    -227.487      22.743
  H     -297.682    -227.691      22.900
  H     -298.762    -228.961      23.423

 6  7  8  9  10  11  12  13  14  15  16  27  31  32  33  34  35 0
 6-311+G(2d,p)
 ****
 36  37 0
 6-311+G(2d,p)
 ****
 1  2  3  4  5  17  18  19  20  21  22  23  24  25 0
 3-21G
 ****
 26  28  29  30  38  39  40  41  42  43  44  45 0
 3-21G
 ****


