%nproc=1
%NoSave
%Mem=1900MB
#P OB98/GEN NMR

erre ene a

0 1
  C      245.829     313.047     539.916
  O      246.736     313.509     538.932
  H      246.039     311.995     540.115
  H      244.802     313.133     539.550
  H      245.943     313.610     540.845
  P      246.707     315.063     538.525
  C      246.981     314.978     535.970
  O      247.627     315.208     537.212
  C      247.986     314.491     534.930
  O      249.048     315.471     534.804
  C      248.642     313.147     535.280
  O      248.804     312.394     534.076
  C      249.994     313.539     535.831
  O      250.967     312.512     535.662
  C      250.303     314.801     535.022
  N      255.196     315.778     535.805
  C      254.595     314.869     534.965
  N      255.419     314.073     534.236
  N      253.305     314.737     534.844
  C      252.601     315.599     535.617
  C      253.085     316.548     536.486
  C      254.511     316.676     536.625
  O      255.108     317.457     537.360
  N      252.053     317.215     537.119
  C      250.959     316.665     536.619
  N      251.232     315.674     535.718
  O      247.041     316.022     539.620
  O      245.227     315.287     537.968
  H      251.825     312.865     535.971
  H      244.664     315.708     538.642
  H      256.203     315.831     535.863
  H      249.944     316.946     536.894
  H      250.754     314.580     534.042
  H      249.916     313.763     536.899
  H      256.423     314.130     534.266
  H      248.054     312.561     536.003
  H      254.990     313.410     533.598
  H      247.484     314.435     533.951
  H      246.535     315.920     535.633
  H      246.187     314.229     536.101
  P      247.499     311.902     533.284
  C      247.910     309.432     532.670
  O      247.950     310.782     532.222
  O      246.627     312.991     532.737
  O      246.712     311.035     534.388
  H      245.757     311.091     534.204
  H      248.230     308.785     531.880
  H      246.910     309.180     532.955
  H      248.560     309.316     533.512

 6  7  8  9  10  11  12  13  14  15  26  29  33  34 0
 6-311+G(2d,p)
 ****
 36  38  39  40  41 0
 6-311+G(2d,p)
 ****
 1  2  3  4  5  16  17  18  19  20  21  22  23  24  25 0
 3-21G
 ****
 27  28  30  31  32  35  37  42  43  44  45  46  47 0
 3-21G
 ****
 48  49 0
 3-21G
 ****


