%nproc=1
%NoSave
%Mem=1900MB
#P OB98/GEN NMR

erre ene a

0 1
  C     -768.667    -116.041     112.451
  O     -768.656    -117.425     112.740
  H     -767.909    -115.547     113.066
  H     -769.647    -115.614     112.686
  H     -768.433    -115.872     111.398
  P     -769.689    -118.341     111.923
  C     -767.818    -119.750     110.793
  O     -768.949    -119.737     111.660
  C     -767.113    -121.106     110.891
  O     -766.269    -121.136     112.062
  C     -768.068    -122.279     111.046
  O     -768.666    -122.665     109.823
  C     -767.133    -123.340     111.619
  O     -766.393    -123.994     110.586
  C     -766.197    -122.508     112.500
  N     -765.357    -125.110     116.815
  C     -764.799    -125.198     115.584
  N     -765.067    -124.457     114.491
  C     -766.000    -123.527     114.768
  C     -766.662    -123.317     115.968
  C     -766.303    -124.162     117.033
  N     -766.886    -124.100     118.278
  N     -767.582    -122.300     115.845
  C     -767.487    -121.892     114.597
  N     -766.539    -122.605     113.910
  O     -769.724    -117.649     110.481
  O     -771.052    -118.444     112.522
  H     -766.038    -124.818     110.980
  H     -770.516    -117.087     110.405
  H     -764.046    -125.962     115.469
  H     -768.074    -121.100     114.148
  H     -765.145    -122.823     112.404
  H     -767.691    -124.101     112.164
  H     -768.837    -122.052     111.794
  H     -766.477    -121.228     110.007
  H     -767.124    -118.959     111.094
  H     -768.157    -119.563     109.770
  H     -766.627    -124.775     118.972
  H     -767.669    -123.466     118.414
  P     -770.211    -123.084     109.846
  C     -770.982    -121.863     107.667
  O     -770.721    -123.098     108.328
  O     -770.945    -121.807     110.478
  O     -770.506    -124.329     110.611
  H     -771.696    -122.102     111.029
  H     -771.312    -122.056     106.668
  H     -770.087    -121.277     107.640
  H     -771.743    -121.329     108.197

 6  7  8  9  10  11  12  13  14  15  25  28  32  33  34  35 0
 6-311+G(2d,p)
 ****
 36  37  40 0
 6-311+G(2d,p)
 ****
 1  2  3  4  5  16  17  18  19  20  21  22  23  24 0
 3-21G
 ****
 26  27  29  30  31  38  39 41  42  43  44  45  46  47  48 0
 3-21G
 ****


