%nproc=1
%NoSave
%Mem=1900MB
#P OB98/GEN NMR

erre ene a

0 1
  C     -102.826    -470.212    -541.264
  O     -102.185    -469.016    -540.877
  H     -102.909    -470.226    -542.357
  H     -103.828    -470.260    -540.838
  H     -102.241    -471.088    -540.952
  P     -101.805    -468.803    -539.330
  C     -103.211    -466.772    -538.577
  O     -101.941    -467.234    -539.016
  C     -103.138    -465.295    -538.169
  O     -102.140    -465.150    -537.125
  C     -102.756    -464.351    -539.315
  O     -103.484    -463.129    -539.184
  C     -101.278    -464.103    -539.093
  O     -100.851    -462.854    -539.637
  C     -101.177    -464.160    -537.574
  N      -96.850    -462.359    -535.687
  C      -98.040    -461.725    -535.929
  N      -98.097    -460.403    -535.643
  N      -99.106    -462.321    -536.410
  C      -98.918    -463.653    -536.624
  C      -97.777    -464.404    -536.424
  C      -96.604    -463.717    -535.909
  O      -95.509    -464.226    -535.691
  N      -97.976    -465.710    -536.783
  C      -99.231    -465.760    -537.195
  N      -99.838    -464.526    -537.139
  O     -100.500    -469.416    -538.914
  O     -103.034    -469.438    -538.531
  H      -99.877    -462.805    -539.511
  H     -102.791    -470.306    -538.143
  H      -96.060    -461.851    -535.324
  H      -99.736    -466.639    -537.550
  H     -101.420    -463.201    -537.094
  H     -100.691    -464.898    -539.564
  H      -97.326    -459.881    -535.252
  H     -102.955    -464.797    -540.295
  H      -98.978    -459.916    -535.786
  H     -104.106    -465.010    -537.731
  H     -103.522    -467.380    -537.718
  H     -103.941    -466.904    -539.387
  P     -104.802    -462.902    -540.079
  C     -103.865    -460.813    -541.234
  O     -104.920    -461.344    -540.447
  O     -106.057    -463.526    -539.543
  O     -104.395    -463.565    -541.488
  H     -105.189    -463.978    -541.888
  H     -104.045    -459.774    -541.418
  H     -103.816    -461.337    -542.166
  H     -102.938    -460.927    -540.712

 6  7  8  9  10  11  12  13  14  15  26  29  33  34 0
 6-311+G(2d,p)
 ****
 36  38  39  40  41 0
 6-311+G(2d,p)
 ****
 1  2  3  4  5  16  17  18  19  20  21  22  23  24  25 0
 3-21G
 ****
 27  28  30  31  32  35  37  42  43  44  45  46  47 0
 3-21G
 ****
 48  49 0
 3-21G
 ****


