%nproc=1
%NoSave
%Mem=1900MB
#P OB98/GEN NMR

erre ene a

0 1
  C      232.628    -190.362    -218.676
  O      231.890    -190.504    -219.872
  H      231.936    -190.120    -217.866
  H      233.359    -189.554    -218.766
  H      233.138    -191.297    -218.431
  P      232.690    -190.749    -221.239
  C      234.213    -192.672    -222.057
  O      233.099    -192.299    -221.259
  C      234.119    -194.147    -222.467
  O      234.117    -194.971    -221.268
  C      232.846    -194.493    -223.257
  O      233.166    -195.575    -224.136
  C      231.922    -194.958    -222.148
  O      230.802    -195.638    -222.661
  C      232.906    -195.759    -221.289
  N      232.399    -196.016    -219.951
  C      231.937    -197.313    -219.703
  O      231.964    -198.162    -220.594
  N      231.431    -197.606    -218.463
  C      231.331    -196.673    -217.569
  N      230.807    -197.028    -216.365
  C      231.751    -195.277    -217.810
  C      232.277    -195.022    -219.009
  O      233.813    -189.801    -221.512
  O      231.562    -190.657    -222.370
  H      230.315    -195.076    -223.303
  H      231.637    -189.806    -222.840
  H      231.627    -194.531    -217.040
  H      232.612    -194.025    -219.278
  H      233.148    -196.720    -221.762
  H      231.537    -194.103    -221.583
  H      232.455    -193.646    -223.827
  H      235.022    -194.413    -223.034
  H      230.523    -197.994    -216.248
  H      235.116    -192.509    -221.460
  H      230.661    -196.383    -215.603
  H      234.265    -192.045    -222.952
  P      234.025    -195.383    -225.477
  C      236.291    -194.200    -225.841
  O      235.569    -195.176    -225.097
  O      233.481    -194.342    -226.404
  O      234.009    -196.822    -226.189
  H      234.054    -196.700    -227.155
  H      237.302    -194.161    -225.491
  H      235.832    -193.242    -225.713
  H      236.282    -194.464    -226.878

 6  7  8  9  10  11  12  13  14  15  16  26  30  31  32  33  35 0
 6-311+G(2d,p)
 ****
 37  38 0
 6-311+G(2d,p)
 ****
 1  2  3  4  5  17  18  19  20  21  22  23  24  25 0
 3-21G
 ****
 27  28  29  34  36  39  40  41  42  43  44  45  46 0
 3-21G
 ****


