%nproc=1
%NoSave
%Mem=1900MB
#P OB98/GEN NMR

erre ene a

0 1
  C      792.787    -420.597    -169.111
  O      792.735    -419.549    -168.127
  P      793.751    -419.677    -166.895
  C      794.343    -417.174    -166.489
  O      794.802    -418.444    -166.970
  C      795.325    -416.048    -166.930
  O      796.659    -416.338    -166.384
  C      795.486    -415.868    -168.450
  O      795.626    -414.465    -168.724
  C      796.830    -416.528    -168.724
  O      797.390    -416.043    -169.938
  C      797.598    -416.176    -167.471
  N      802.416    -417.018    -168.755
  C      801.596    -415.956    -169.065
  N      802.132    -415.028    -169.870
  N      800.348    -415.853    -168.645
  C      799.995    -416.858    -167.817
  C      800.700    -417.961    -167.376
  C      802.068    -418.071    -167.918
  O      802.845    -419.030    -167.698
  N      799.977    -418.761    -166.561
  C      798.799    -418.175    -166.480
  N      798.755    -416.999    -167.224
  O      794.658    -420.942    -167.242
  O      793.078    -419.847    -165.548
  H      798.277    -416.442    -170.041
  H      794.591    -421.621    -166.545
  H      803.356    -417.085    -169.107
  H      797.946    -418.527    -165.919
  H      797.919    -415.145    -167.457
  H      796.674    -417.604    -168.858
  H      803.099    -415.015    -170.195
  H      794.666    -416.270    -169.031
  H      801.532    -414.199    -170.102
  H      794.998    -415.111    -166.457
  H      794.266    -417.186    -165.407
  H      793.372    -416.987    -166.921
  P      794.284    -413.629    -168.974
  C      794.859    -411.985    -167.045
  O      793.935    -412.904    -167.585
  O      793.158    -414.788    -169.077
  O      794.284    -412.742    -170.151
  H      792.390    -414.462    -169.624
  H      795.662    -411.749    -167.721
  H      795.327    -412.438    -166.147
  H      794.329    -411.081    -166.755
  H      792.067    -420.402    -169.878
  H      792.566    -421.535    -168.645
  H      793.766    -420.634    -169.541

 3  4  5  6  7  8  9  10  11  12  23  26  30  31  33  0
 6-311+G(2d,p)
 ****
 35  36  37  38 0
 6-311+G(2d,p)
 ****
 1  2  13  14  15  16  17  18  19  20  21  22  24  25  27  28  29 0
 3-21G
 ****
 32  34  39  40  41  42  43  44  45  46  47  48  49 0
 3-21G
 ****


