%nproc=1
%NoSave
%Mem=1900MB
#P OB98/GEN NMR

erre ene a

0 1
  C      393.042     102.976     106.911
  O      393.615     104.049     107.628
  P      395.022     104.701     107.243
  C      395.680     104.768     109.762
  O      396.060     104.400     108.433
  C      396.018     103.686     110.798
  O      395.366     102.448     110.436
  C      397.527     103.401     110.792
  O      398.407     104.230     111.528
  C      397.642     101.910     111.088
  O      397.938     101.643     112.458
  C      396.265     101.362     110.709
  N      396.552      96.553     109.120
  C      396.274      97.034     110.388
  N      396.266      96.123     111.384
  N      396.057      98.299     110.644
  C      396.193      99.106     109.565
  C      396.447      98.744     108.264
  C      396.647      97.338     107.982
  O      396.975      96.882     106.890
  N      396.594      99.835     107.450
  C      396.470     100.867     108.265
  N      396.264     100.472     109.567
  O      394.986     106.077     106.651
  O      395.539     103.697     106.088
  H      398.859     101.911     112.623
  H      396.037     104.224     105.438
  H      396.786      95.577     108.995
  H      396.551     101.905     107.971
  H      395.833     100.806     111.550
  H      398.461     101.467     110.507
  H      396.574      95.168     111.241
  H      397.861     103.513     109.752
  H      396.241      96.461     112.335
  H      395.624     103.954     111.784
  H      394.600     104.970     109.746
  H      396.178     105.702     110.039
  P      399.497     105.226     110.920
  C      401.414     103.702     111.664
  O      400.820     104.386     110.576
  O      399.957     106.120     112.172
  O      399.006     106.104     109.815
  H      400.342     106.959     111.850
  H      402.436     103.430     111.391
  H      400.848     102.790     111.877
  H      401.442     104.337     112.563
  H      392.104     102.712     107.353
  H      393.701     102.133     106.943
  H      392.887     103.269     105.894

 3  4  5  6  7  8  9  10  11  12  23  26  30  31 0
 6-311+G(2d,p)
 ****
 33  35  36  37  38 0
 6-311+G(2d,p)
 ****
 1  2  13  14  15  16  17  18  19  20  21  22  24  25 0
 3-21G
 ****
 27  28  29  32  34  39  40  41  42  43  44  45  46  47  48  49 0
 3-21G
 ****


