%nproc=1
%NoSave
%Mem=1900MB
#P OB98/GEN NMR

erre ene a

0 1
  C     -248.040     -80.640     789.166
  O     -246.726     -81.159     789.221
  H     -248.664     -81.200     789.865
  H     -248.454     -80.741     788.156
  H     -248.042     -79.581     789.457
  P     -245.633     -80.588     788.199
  C     -243.064     -80.929     788.094
  O     -244.339     -81.527     788.337
  C     -241.938     -81.764     788.723
  O     -242.015     -81.619     790.188
  C     -242.036     -83.268     788.413
  O     -240.690     -83.792     788.412
  C     -242.812     -83.784     789.617
  O     -242.738     -85.180     789.717
  C     -242.162     -82.952     790.731
  N     -242.967     -82.943     791.958
  C     -243.108     -84.172     792.607
  O     -242.578     -85.183     792.137
  N     -243.861     -84.235     793.752
  C     -244.472     -83.173     794.174
  N     -245.217     -83.301     795.303
  C     -244.406     -81.857     793.471
  C     -243.642     -81.815     792.384
  O     -245.356     -79.123     788.295
  O     -246.204     -80.973     786.755
  H     -241.830     -85.472     789.963
  H     -246.577     -80.183     786.318
  H     -244.958     -81.011     793.859
  H     -243.528     -80.910     791.813
  H     -241.168     -83.331     790.967
  H     -243.881     -83.528     789.527
  H     -242.520     -83.480     787.458
  H     -240.978     -81.355     788.419
  H     -245.237     -84.208     795.746
  H     -243.091     -79.930     788.539
  H     -245.766     -82.541     795.724
  H     -242.894     -80.831     787.024
  P     -239.894     -84.120     787.067
  C     -237.388     -83.608     786.645
  O     -238.339     -84.357     787.414
  O     -240.118     -83.136     785.960
  O     -240.396     -85.589     786.635
  H     -240.351     -85.659     785.667
  H     -236.397     -83.852     786.968
  H     -237.561     -82.561     786.785
  H     -237.496     -83.852     785.609

 6  7  8  9  10  11  12  13  14  15  16  26  30  31  32  33  35 0
 6-311+G(2d,p)
 ****
 37  38 0
 6-311+G(2d,p)
 ****
 1  2  3  4  5  17  18  19  20  21  22  23  24  25 0
 3-21G
 ****
 27  28  29  34  36  39  40  41  42  43  44  45  46 0
 3-21G
 ****


