%nproc=1
%NoSave
%Mem=1900MB
#P OB98/GEN NMR

erre ene a

0 1
  C      700.322     801.528    -754.065
  O      700.783     800.224    -753.772
  P      701.882     799.503    -754.688
  C      704.016     799.552    -753.245
  O      703.288     800.179    -754.297
  C      705.506     799.873    -753.333
  O      706.006     799.498    -754.645
  C      705.860     801.352    -753.106
  O      707.129     801.365    -752.455
  C      705.979     801.875    -754.532
  O      706.717     803.095    -754.603
  C      706.626     800.672    -755.224
  N      706.456     800.724    -756.670
  C      707.425     801.420    -757.393
  O      708.317     802.029    -756.805
  N      707.328     801.467    -758.763
  C      706.294     800.950    -759.353
  N      706.253     801.025    -760.710
  C      705.185     800.311    -758.624
  C      705.333     800.223    -757.291
  O      701.578     799.484    -756.151
  O      702.010     798.042    -754.041
  H      706.174     803.814    -754.233
  H      701.242     797.478    -754.317
  H      704.314     799.939    -759.138
  H      704.580     799.766    -756.674
  H      707.691     800.615    -755.000
  H      704.981     802.068    -754.947
  H      705.110     801.900    -752.525
  H      706.032     799.254    -752.594
  H      707.035     801.455    -761.173
  H      703.878     798.469    -753.336
  H      705.536     800.584    -761.266
  H      703.603     799.858    -752.279
  P      707.374     802.254    -751.132
  C      707.195     800.492    -749.283
  O      706.546     801.559    -749.951
  O      707.137     803.718    -751.301
  O      708.898     801.948    -750.734
  H      709.210     802.623    -750.113
  H      706.669     800.287    -748.339
  H      708.236     800.730    -749.077
  H      707.142     799.596    -749.913
  H      699.596     801.822    -753.336
  H      699.876     801.538    -755.037
  H      701.146     802.211    -754.043

 3  4  5  6  7  8  9  10  11  12  13  23  27  28  29  30  32 0
 6-311+G(2d,p)
 ****
 34  35 0
 6-311+G(2d,p)
 ****
 1  2  14  15  16  17  18  19  20  21  22  24  25  26 0
 3-21G
 ****
 31  33  36  37  38  39  40  41  42  43  44  45  46 0
 3-21G
 ****


