%nproc=1
%NoSave
%Mem=1900MB
#P OB98/GEN NMR

erre ene a

0 1
  C     -288.838    -326.049      98.603
  O     -288.438    -327.310      99.102
  H     -289.616    -326.207      97.848
  H     -287.989    -325.538      98.134
  H     -289.243    -325.439      99.413
  P     -287.265    -327.306     100.202
  C     -286.312    -329.672      99.834
  O     -287.130    -328.844     100.648
  C     -286.564    -331.149     100.139
  O     -286.201    -331.410     101.517
  C     -288.032    -331.563      99.966
  O     -288.091    -332.881      99.414
  C     -288.568    -331.590     101.387
  O     -289.682    -332.462     101.537
  C     -287.323    -332.007     102.179
  N     -289.600    -332.840     106.669
  C     -289.632    -333.516     105.499
  N     -288.984    -333.236     104.359
  C     -288.196    -332.141     104.505
  C     -288.066    -331.346     105.635
  C     -288.826    -331.735     106.748
  N     -288.825    -331.029     107.936
  N     -287.210    -330.296     105.380
  C     -286.815    -330.461     104.134
  N     -287.396    -331.558     103.563
  O     -287.429    -326.330     101.318
  O     -285.960    -327.095      99.296
  H     -289.475    -333.302     101.074
  H     -285.995    -327.655      98.495
  H     -290.269    -334.406     105.489
  H     -286.118    -329.818     103.598
  H     -287.185    -333.098     102.193
  H     -288.882    -330.580     101.680
  H     -288.589    -330.871      99.334
  H     -285.905    -331.758      99.505
  H     -285.250    -329.440     100.010
  H     -289.386    -331.371     108.700
  H     -288.241    -330.202     108.025
  H     -286.544    -329.455      98.786
  P     -288.319    -333.022      97.841
  C     -289.767    -335.166      98.064
  O     -288.590    -334.579      97.503
  O     -287.332    -332.350      96.955
  O     -289.791    -332.389      97.641
  H     -289.804    -331.902      96.797
  H     -289.830    -336.192      97.767
  H     -290.630    -334.640      97.713
  H     -289.722    -335.106      99.131

 6  7  8  9  10  11  12  13  14  15  25  28  32  33  34  35 0
 6-311+G(2d,p)
 ****
 36  39  40 0
 6-311+G(2d,p)
 ****
 1  2  3  4  5  16  17  18  19  20  21  22  23  24 0
 3-21G
 ****
 26  27  29  30  31  37  38  41  42  43  44  45  46  47 0
 3-21G
 ****
 48 0
 3-21G
 ****


