%nproc=1
%NoSave
%Mem=1900MB
#P OB98/GEN NMR

erre ene a

0 1
  C       29.116     379.255    -761.313
  O       29.326     378.610    -760.068
  H       30.018     379.794    -761.617
  H       28.892     378.489    -762.070
  H       28.267     379.943    -761.248
  P       29.636     379.563    -758.819
  C       31.944     378.422    -758.464
  O       30.686     378.766    -757.894
  C       32.644     377.381    -757.589
  O       33.035     377.974    -756.336
  C       31.788     376.174    -757.224
  O       31.727     375.227    -758.278
  C       32.557     375.634    -756.029
  O       33.697     374.883    -756.491
  C       33.015     376.916    -755.330
  N       31.288     375.712    -750.658
  C       32.222     375.140    -751.463
  N       32.641     375.530    -752.679
  C       32.007     376.653    -753.056
  C       31.052     377.366    -752.350
  C       30.684     376.845    -751.096
  N       29.686     377.409    -750.319
  N       30.625     378.460    -753.072
  C       31.292     378.392    -754.207
  N       32.145     377.327    -754.243
  O       28.270     379.511    -757.976
  O       30.016     380.963    -759.165
  H       34.261     374.720    -755.711
  H       27.724     380.286    -758.200
  H       32.689     374.237    -751.059
  H       31.189     379.094    -755.027
  H       34.036     376.836    -754.928
  H       31.958     374.961    -755.400
  H       30.780     376.469    -756.892
  H       33.562     377.067    -758.107
  H       32.571     379.320    -758.534
  H       29.208     376.740    -749.720
  H       29.098     378.077    -750.805
  H       31.777     378.018    -759.471
  P       30.283     374.729    -758.768
  C       31.004     372.247    -758.866
  O       30.515     373.373    -759.586
  O       29.895     375.797    -759.879
  O       29.233     374.669    -757.684
  H       29.033     376.217    -759.668
  H       31.111     371.417    -759.532
  H       30.314     371.994    -758.088
  H       31.955     372.484    -758.436

 6  7  8  9  10  11  12  13  14  15  25  28  32  33  34  35 0
 6-311+G(2d,p)
 ****
 36  39  40 0
 6-311+G(2d,p)
 ****
 1  2  3  4  5  16  17  18  19  20  21  22  23  24 0
 3-21G
 ****
 26  27  29  30  31  37  38  41  42  43  44  45  46  47  48 0
 3-21G
 ****


