%nproc=1
%NoSave
%Mem=1900MB
#P OB98/GEN NMR

erre ene a

0 1
  C      -39.492    -537.616    -349.214
  O      -40.574    -537.864    -350.116
  P      -41.573    -539.067    -349.775
  C      -43.514    -537.534    -348.976
  O      -42.599    -538.567    -348.652
  C      -44.369    -537.176    -347.755
  O      -43.554    -536.704    -346.660
  C      -45.386    -536.075    -348.030
  O      -46.562    -536.585    -348.629
  C      -45.685    -535.598    -346.612
  O      -46.628    -536.504    -345.989
  C      -44.313    -535.703    -345.926
  N      -44.128    -531.042    -343.983
  C      -45.017    -532.075    -343.734
  N      -45.987    -531.829    -342.825
  N      -44.952    -533.245    -344.323
  C      -43.914    -533.342    -345.190
  C      -42.981    -532.392    -345.524
  C      -43.068    -531.099    -344.874
  O      -42.329    -530.141    -345.062
  N      -42.092    -532.861    -346.449
  C      -42.469    -534.111    -346.672
  N      -43.587    -534.447    -345.936
  O      -40.639    -540.093    -348.977
  O      -42.191    -539.718    -350.983
  H      -46.161    -537.349    -345.869
  H      -40.966    -541.004    -349.091
  H      -44.233    -530.159    -343.501
  H      -41.974    -534.795    -347.339
  H      -44.389    -536.036    -344.888
  H      -46.140    -534.611    -346.585
  H      -46.069    -530.978    -342.302
  H      -44.942    -535.256    -348.607
  H      -46.627    -532.592    -342.608
  H      -44.900    -538.081    -347.436
  H      -44.161    -537.851    -349.800
  H      -42.958    -536.666    -349.352
  P      -46.574    -536.777    -350.228
  C      -46.998    -539.319    -349.911
  O      -46.192    -538.311    -350.486
  O      -45.266    -535.971    -350.682
  O      -47.787    -536.273    -350.913
  H      -45.398    -535.589    -351.577
  H      -46.698    -540.286    -350.325
  H      -48.054    -539.146    -350.152
  H      -46.860    -539.339    -348.826
  H      -38.914    -536.789    -349.569
  H      -38.871    -538.485    -349.154
  H      -39.882    -537.388    -348.244

 3  4  5  6  7  8  9  10  11  12  23  26  30  31 0
 6-311+G(2d,p)
 ****
 33  35  36  37  38 0
 6-311+G(2d,p)
 ****
 1  2  13  14  15  16  17  18  19  20  21  22  24  25 0
 3-21G
 ****
 27  28  29  32  34  39  40  41  42  43  44  45  46  47  48  49 0
 3-21G
 ****


