%nproc=1
%NoSave
%Mem=1900MB
#P OB98/GEN NMR

erre ene a

0 1
  C     1106.802    2362.797     -42.490
  O     1106.393    2364.152     -42.608
  H     1107.674    2362.756     -41.819
  H     1107.094    2362.410     -43.455
  H     1106.003    2362.203     -42.055
  P     1105.179    2364.511     -43.588
  C     1103.720    2365.240     -41.598
  O     1103.837    2364.374     -42.719
  C     1102.467    2364.868     -40.757
  O     1102.677    2363.479     -40.295
  C     1102.291    2365.752     -39.531
  O     1100.964    2366.327     -39.470
  C     1102.741    2364.888     -38.385
  O     1102.182    2365.199     -37.121
  C     1102.452    2363.473     -38.850
  N     1103.285    2362.433     -38.234
  C     1102.981    2362.093     -36.936
  O     1102.078    2362.585     -36.238
  N     1103.794    2361.154     -36.355
  C     1104.829    2360.511     -36.958
  O     1105.521    2359.643     -36.413
  C     1105.133    2360.923     -38.339
  C     1104.367    2361.865     -38.914
  O     1105.177    2363.776     -44.885
  O     1105.314    2366.077     -43.817
  H     1101.215    2365.156     -37.216
  H     1105.707    2366.266     -44.694
  H     1103.587    2360.880     -35.387
  H     1105.943    2360.470     -38.864
  H     1104.508    2362.173     -39.936
  H     1101.427    2363.213     -38.670
  H     1103.846    2365.021     -38.277
  H     1102.936    2366.641     -39.603
  H     1101.585    2364.867     -41.417
  H     1103.621    2366.269     -41.986
  H     1104.599    2365.177     -40.979
  P     1100.610    2367.854     -39.755
  C     1099.428    2367.393     -42.065
  O     1100.479    2368.030     -41.343
  O     1101.444    2368.821     -39.030
  O     1099.088    2367.986     -39.235
  H     1099.007    2368.882     -38.903
  H     1099.513    2367.632     -43.104
  H     1098.484    2367.736     -41.697
  H     1099.498    2366.333     -41.936

 6  7  8  9  10  11  12  13  14  15  16  26  31  32  33  34  35 0
 6-311+G(2d,p)
 ****
 36  37 0
 6-311+G(2d,p)
 ****
 1  2  3  4  5  17  18  19  20  21  22  23  24  25 0
 3-21G
 ****
 27  28  29  30  38  39  40  41  42  43  44  45 0
 3-21G
 ****


