%nproc=1
%NoSave
%Mem=1900MB
#P OB98/GEN NMR

erre ene a

0 1
  C      814.475    -398.173    -433.781
  O      813.657    -398.634    -432.683
  P      812.203    -399.245    -433.000
  C      810.624    -400.797    -431.642
  O      811.507    -399.677    -431.639
  C      810.826    -401.651    -430.379
  O      812.156    -402.200    -430.303
  C      810.637    -400.871    -429.082
  O      809.270    -400.770    -428.739
  C      811.353    -401.766    -428.095
  O      810.500    -402.880    -427.710
  C      812.545    -402.288    -428.911
  N      816.920    -402.031    -426.285
  C      815.895    -402.887    -426.216
  N      814.748    -402.875    -426.950
  C      814.750    -401.869    -427.819
  C      815.724    -400.884    -427.970
  C      816.874    -400.993    -427.156
  N      817.924    -400.108    -427.209
  N      815.374    -399.986    -428.957
  C      814.195    -400.395    -429.372
  N      813.773    -401.519    -428.717
  O      812.552    -400.650    -433.720
  O      811.385    -398.399    -433.909
  H      809.793    -402.479    -427.140
  H      811.896    -400.843    -434.386
  H      815.985    -403.704    -425.504
  H      813.614    -399.933    -430.159
  H      812.794    -403.336    -428.708
  H      811.627    -401.262    -427.146
  H      811.136    -399.887    -429.121
  H      810.111    -402.487    -430.415
  H      810.805    -401.411    -432.524
  H      818.728    -400.265    -426.624
  H      817.896    -399.353    -427.886
  H      809.575    -400.434    -431.701
  P      808.641    -399.273    -428.692
  C      806.328    -398.294    -429.394
  O      807.076    -399.442    -429.008
  O      809.233    -398.590    -429.995
  O      808.963    -398.519    -427.441
  H      809.354    -397.626    -429.830
  H      805.402    -398.640    -429.862
  H      806.909    -397.682    -430.097
  H      806.091    -397.709    -428.511
  H      815.403    -397.799    -433.402
  H      813.963    -397.392    -434.304
  H      814.665    -398.986    -434.450

 3  4  5  6  7  8  9  10  11  12  22  25  29  30  31  32 0
 6-311+G(2d,p)
 ****
 33  36  37 0
 6-311+G(2d,p)
 ****
 1  2  13  14  15  16  17  18  19  20  21  23  24  26 0
 3-21G
 ****
 27  28  34  35  38  39  40  41  42  43  44  45  46  47  48 0
 3-21G
 ****


