%nproc=1
%NoSave
%Mem=1900MB
#P OB98/GEN NMR

erre ene a

0 1
  C      -22.734     -27.537       4.553
  O      -22.536     -27.075       5.874
  H      -22.349     -26.787       3.858
  H      -23.801     -27.675       4.365
  H      -22.201     -28.477       4.389
  P      -22.845     -28.116       7.055
  C      -20.744     -27.365       8.379
  O      -22.154     -27.524       8.377
  C      -20.350     -26.161       9.230
  O      -20.630     -24.932       8.523
  C      -21.091     -26.065      10.560
  O      -20.499     -26.889      11.555
  C      -20.899     -24.592      10.880
  O      -19.562     -24.372      11.374
  C      -21.068     -23.946       9.500
  N      -23.984     -20.415       7.326
  C      -22.609     -20.475       7.456
  N      -21.912     -19.440       6.941
  N      -21.974     -21.456       8.041
  C      -22.801     -22.416       8.520
  C      -24.175     -22.471       8.451
  C      -24.863     -21.384       7.794
  O      -26.076     -21.293       7.631
  N      -24.661     -23.608       9.039
  C      -23.587     -24.231       9.481
  N      -22.432     -23.546       9.197
  O      -21.922     -29.375       6.690
  O      -24.274     -28.516       7.198
  H      -18.961     -24.479      10.615
  H      -22.393     -30.193       6.940
  H      -24.423     -19.632       6.876
  H      -23.591     -25.175      10.007
  H      -20.438     -23.058       9.375
  H      -21.586     -24.235      11.648
  H      -22.341     -18.630       6.521
  H      -22.160     -26.276      10.442
  H      -20.902     -19.477       6.994
  H      -19.266     -26.205       9.395
  H      -20.397     -27.210       7.353
  H      -20.283     -28.274       8.777
  P      -21.385     -27.250      12.846
  C      -21.226     -29.839      12.717
  O      -20.815     -28.650      13.382
  O      -22.800     -27.646      12.211
  O      -21.506     -26.159      13.853
  H      -23.507     -27.532      12.874
  H      -20.767     -30.686      13.184
  H      -20.929     -29.794      11.690
  H      -22.290     -29.932      12.777

 6  7  8  9  10  11  12  13  14  15  26  29  33  34 0
 6-311+G(2d,p)
 ****
 36  38  39  40  41 0
 6-311+G(2d,p)
 ****
 1  2  3  4  5  16  17  18  19  20  21  22  23  24  25 0
 3-21G
 ****
 27  28  30  31  32  35  37  42  43  44  45  46  47 0
 3-21G
 ****
 48  49 0
 3-21G
 ****


