%nproc=1
%NoSave
%Mem=1900MB
#P OB98/GEN NMR

erre ene a

0 1
  C     -653.314    -166.608     325.604
  O     -652.683    -166.441     324.349
  P     -653.466    -166.784     322.992
  C     -654.069    -169.006     321.728
  O     -653.732    -168.355     322.935
  C     -652.916    -169.946     321.331
  O     -652.535    -170.761     322.457
  C     -653.320    -170.870     320.190
  O     -652.930    -170.328     318.937
  C     -652.602    -172.164     320.531
  O     -651.224    -172.096     320.108
  C     -652.690    -172.160     322.082
  N     -653.935    -172.664     322.712
  C     -654.293    -173.998     322.550
  O     -653.610    -174.818     321.941
  N     -655.492    -174.361     323.112
  C     -656.306    -173.535     323.843
  O     -657.482    -173.804     324.132
  C     -655.749    -172.231     324.191
  C     -654.620    -171.846     323.596
  O     -652.352    -166.551     321.858
  O     -654.696    -165.969     322.738
  H     -651.218    -171.673     319.230
  H     -652.459    -165.676     321.449
  H     -655.826    -175.295     322.895
  H     -656.312    -171.604     324.882
  H     -654.202    -170.868     323.826
  H     -651.856    -172.723     322.524
  H     -653.045    -173.004     320.016
  H     -654.404    -171.046     320.212
  H     -652.053    -169.331     321.036
  H     -654.256    -168.272     320.939
  H     -654.998    -169.582     321.861
  P     -653.809    -170.617     317.632
  C     -653.715    -172.370     315.767
  O     -653.256    -172.007     317.045
  O     -653.904    -169.491     316.645
  O     -655.250    -170.994     318.233
  H     -655.846    -170.211     318.213
  H     -653.138    -173.233     315.413
  H     -653.594    -171.544     315.061
  H     -654.773    -172.657     315.826
  H     -652.636    -166.330     326.384
  H     -653.598    -167.632     325.727
  H     -654.185    -165.988     325.650

 3  4  5  6  7  8  9  10  11  12  13  23  28  29  30  31  32 0
 6-311+G(2d,p)
 ****
 33  34 0
 6-311+G(2d,p)
 ****
 1  2  14  15  16  17  18  19  20  21  22  24  25  26  27 0
 3-21G
 ****
 35  36  37  38  39  40  41  42  43  44  45 0
 3-21G
 ****


