%nproc=1
%NoSave
%Mem=1900MB
#P OB98/GEN NMR

erre ene a

0 1
  C      998.038     171.574    -626.192
  O      999.021     170.929    -626.982
  P      998.956     169.350    -627.282
  C      999.431     168.995    -624.774
  O      999.813     168.677    -626.104
  C      999.975     167.948    -623.801
  O      999.451     166.652    -624.172
  C     1001.495     167.781    -623.793
  O     1002.192     168.698    -622.974
  C     1001.615     166.380    -623.186
  O     1001.452     166.445    -621.766
  C     1000.424     165.655    -623.839
  N     1003.636     162.147    -625.740
  C     1003.469     162.649    -624.493
  N     1002.606     163.602    -624.071
  C     1001.834     163.991    -625.080
  C     1001.857     163.577    -626.403
  C     1002.825     162.606    -626.726
  N     1002.966     162.076    -627.994
  N     1000.904     164.244    -627.153
  C     1000.297     165.035    -626.293
  N     1000.815     164.920    -625.036
  O      999.326     168.969    -628.672
  O      997.449     168.950    -626.898
  H     1002.255     166.852    -621.399
  H      997.239     168.075    -627.293
  H     1004.140     162.237    -623.735
  H      999.495     165.706    -626.549
  H      999.949     164.944    -623.151
  H     1002.592     165.922    -623.376
  H     1001.902     167.764    -624.812
  H      999.608     168.193    -622.795
  H      998.336     168.995    -624.724
  H     1003.586     161.282    -628.102
  H     1002.243     162.298    -628.680
  H      999.786     169.996    -624.525
  P     1003.600     169.256    -623.529
  C     1005.164     167.528    -622.306
  O     1004.684     168.868    -622.404
  O     1003.594     170.689    -623.936
  O     1003.933     168.249    -624.724
  H     1004.115     167.331    -624.460
  H     1006.002     167.508    -621.600
  H     1005.506     167.163    -623.280
  H     1004.370     166.874    -621.932
  H      998.268     172.616    -626.118
  H      998.026     171.141    -625.214
  H      997.078     171.452    -626.648

 3  4  5  6  7  8  9  10  11  12  22  25  29  30  31  32 0
 6-311+G(2d,p)
 ****
 33  36  37 0
 6-311+G(2d,p)
 ****
 1  2  13  14  15  16  17  18  19  20  21  23  24  26 0
 3-21G
 ****
 27  28  34  35  38  39  40  41  42  43  44  45  46  47  48 0
 3-21G
 ****


