%nproc=1
%NoSave
%Mem=1900MB
#P OB98/GEN NMR

erre ene a

0 1
  C      -77.336     243.254      64.024
  O      -77.214     244.638      63.695
  P      -76.274     245.067      62.468
  C      -77.860     246.935      61.689
  O      -76.546     246.613      62.124
  C      -77.998     248.412      61.294
  O      -78.217     249.241      62.464
  C      -76.781     248.985      60.551
  O      -77.282     249.915      59.585
  C      -76.037     249.705      61.655
  O      -75.110     250.655      61.159
  C      -77.213     250.277      62.453
  N      -76.835     250.677      63.799
  C      -76.558     252.029      64.011
  O      -76.538     252.809      63.061
  N      -76.281     252.447      65.291
  C      -76.143     251.573      66.237
  N      -75.889     252.029      67.493
  C      -76.251     250.117      66.010
  C      -76.619     249.747      64.787
  O      -76.296     244.148      61.293
  O      -74.816     245.109      63.138
  H      -74.293     250.190      60.879
  H      -74.158     244.820      62.474
  H      -76.048     249.421      66.811
  H      -76.732     248.706      64.522
  H      -77.647     251.146      61.941
  H      -75.484     248.978      62.262
  H      -76.187     248.222      60.038
  H      -78.891     248.505      60.658
  H      -75.793     253.027      67.629
  H      -78.567     246.709      62.490
  H      -75.820     251.411      68.293
  H      -78.130     246.276      60.855
  P      -77.335     249.480      58.039
  C      -79.803     250.221      57.705
  O      -78.457     250.366      57.314
  O      -78.056     248.046      58.129
  O      -76.019     249.348      57.347
  H      -77.801     247.516      57.353
  H      -80.373     251.074      57.328
  H      -79.904     250.197      58.794
  H      -80.219     249.304      57.275
  H      -77.995     243.143      64.860
  H      -76.373     242.861      64.274
  H      -77.732     242.721      63.185

 3  4  5  6  7  8  9  10  11  12  13  23  27  28  29  30  32 0
 6-311+G(2d,p)
 ****
 34  35 0
 6-311+G(2d,p)
 ****
 1  2  14  15  16  17  18  19  20  21  22  24  25  26 0
 3-21G
 ****
 31  33  36  37  38  39  40  41  42  43  44  45  46 0
 3-21G
 ****


