%nproc=1
%NoSave
%Mem=1900MB
#P OB98/GEN NMR

erre ene a

0 1
  C      147.338    -209.923    -312.091
  O      148.402    -210.515    -311.376
  H      146.428    -210.505    -311.921
  H      147.560    -209.922    -313.161
  H      147.172    -208.898    -311.745
  P      149.838    -209.812    -311.493
  C      151.751    -209.855    -313.252
  O      150.545    -210.458    -312.784
  C      152.457    -210.784    -314.239
  O      152.973    -211.940    -313.521
  C      151.551    -211.303    -315.366
  O      152.313    -211.364    -316.580
  C      151.224    -212.717    -314.917
  O      150.850    -213.551    -316.009
  C      152.534    -213.110    -314.241
  N      152.640    -218.137    -314.044
  C      152.904    -217.277    -315.088
  N      153.241    -217.837    -316.271
  N      152.833    -215.976    -314.989
  C      152.509    -215.549    -313.745
  C      152.212    -216.301    -312.631
  C      152.271    -217.739    -312.762
  O      152.028    -218.552    -311.874
  N      151.895    -215.490    -311.565
  C      151.999    -214.257    -312.036
  N      152.371    -214.248    -313.350
  O      150.664    -210.438    -310.272
  O      149.829    -208.319    -311.462
  H      151.519    -213.433    -316.721
  H      151.331    -209.805    -309.941
  H      152.697    -219.135    -314.175
  H      151.814    -213.355    -311.469
  H      153.316    -213.379    -314.961
  H      150.400    -212.699    -314.195
  H      153.346    -218.833    -316.412
  H      150.657    -210.696    -315.523
  H      153.450    -217.226    -317.052
  H      153.329    -210.253    -314.645
  H      152.405    -209.665    -312.394
  H      151.510    -208.905    -313.739
  P      151.697    -210.650    -317.877
  C      150.941    -211.423    -320.236
  O      151.150    -211.782    -318.876
  O      153.002    -210.087    -318.629
  O      150.744    -209.545    -317.567
  H      153.042    -209.119    -318.548
  H      150.578    -212.272    -320.777
  H      151.865    -211.095    -320.664
  H      150.222    -210.632    -320.290

 6  7  8  9  10  11  12  13  14  15  26  29  33  34 0
 6-311+G(2d,p)
 ****
 36  38  39  40  41 0
 6-311+G(2d,p)
 ****
 1  2  3  4  5  16  17  18  19  20  21  22  23  24  25 0
 3-21G
 ****
 27  28  30  31  32  35  37  42  43  44  45  46  47 0
 3-21G
 ****
 48  49 0
 3-21G
 ****


