%nproc=1
%NoSave
%Mem=1900MB
#P OB98/GEN NMR

erre ene a

0 1
  C       16.368     -69.534     246.337
  O       14.987     -69.275     246.446
  H       16.910     -68.596     246.497
  H       16.611     -69.902     245.338
  H       16.687     -70.256     247.092
  P       13.943     -70.473     246.211
  C       14.467     -72.964     246.544
  O       14.464     -71.677     247.146
  C       15.049     -74.013     247.490
  O       16.463     -73.745     247.701
  C       14.374     -74.044     248.870
  O       14.078     -75.395     249.233
  C       15.440     -73.489     249.801
  O       15.278     -73.914     251.152
  C       16.715     -73.968     249.100
  N       17.899     -73.261     249.571
  C       18.711     -73.954     250.474
  O       18.416     -75.097     250.824
  N       19.805     -73.319     251.001
  C       20.042     -72.082     250.691
  N       21.126     -71.501     251.271
  C       19.194     -71.305     249.764
  C       18.152     -71.950     249.243
  O       13.721     -70.835     244.782
  O       12.607     -70.003     246.956
  H       15.337     -74.893     251.179
  H       11.840     -70.490     246.573
  H       19.430     -70.274     249.543
  H       17.472     -71.462     248.554
  H       16.865     -75.044     249.252
  H       15.397     -72.390     249.786
  H       13.458     -73.456     248.913
  H       14.993     -74.993     246.999
  H       21.675     -72.070     251.906
  H       15.052     -72.916     245.618
  H       21.394     -70.540     251.126
  H       13.434     -73.235     246.303
  P       12.556     -75.862     249.040
  C       11.183     -75.803     246.839
  O       12.351     -76.263     247.500
  O       11.729     -74.502     249.200
  O       12.119     -76.890     250.031
  H       11.225     -74.516     250.036
  H       11.187     -76.148     245.826
  H       11.164     -74.733     246.851
  H       10.317     -76.181     247.341

 6  7  8  9  10  11  12  13  14  15  16  26  30  31  32  33  35 0
 6-311+G(2d,p)
 ****
 37  38 0
 6-311+G(2d,p)
 ****
 1  2  3  4  5  17  18  19  20  21  22  23  24  25 0
 3-21G
 ****
 27  28  29  34  36  39  40  41  42  43  44  45  46 0
 3-21G
 ****


