%nproc=1
%NoSave
%Mem=1900MB
#P OB98/GEN NMR

erre ene a

0 1
  C     1885.545     -24.295    1294.076
  O     1884.660     -24.231    1295.177
  H     1885.843     -25.345    1293.909
  H     1886.455     -23.719    1294.303
  H     1885.063     -23.908    1293.171
  P     1884.187     -22.766    1295.657
  C     1882.131     -22.808    1294.068
  O     1883.335     -22.139    1294.454
  C     1880.907     -21.980    1294.490
  O     1881.057     -20.613    1293.938
  C     1879.598     -22.478    1293.944
  O     1879.077     -23.578    1294.697
  C     1878.724     -21.224    1294.089
  O     1878.196     -21.105    1295.422
  C     1879.717     -20.073    1293.779
  N     1879.500     -19.518    1292.443
  C     1878.600     -18.483    1292.360
  O     1877.989     -18.056    1293.358
  N     1878.363     -18.014    1291.101
  C     1878.931     -18.470    1289.943
  O     1878.616     -18.021    1288.839
  C     1879.870     -19.565    1290.091
  C     1880.124     -20.085    1291.310
  O     1885.542     -21.915    1295.624
  O     1883.527     -22.726    1296.982
  H     1885.864     -21.776    1296.550
  H     1878.952     -20.813    1295.984
  H     1877.712     -17.252    1291.022
  H     1880.316     -19.978    1289.208
  H     1880.820     -20.889    1291.426
  H     1879.608     -19.266    1294.511
  H     1877.898     -21.261    1293.397
  H     1879.683     -22.748    1292.878
  H     1880.914     -21.900    1295.578
  H     1882.039     -23.788    1294.565
  H     1882.127     -22.962    1292.992
  P     1878.408     -24.785    1293.904
  C     1880.501     -26.317    1294.509
  O     1879.630     -25.794    1293.498
  O     1878.027     -24.053    1292.515
  O     1877.267     -25.427    1294.644
  H     1878.618     -23.297    1292.324
  H     1881.233     -26.953    1294.056
  H     1879.929     -26.880    1295.217
  H     1880.992     -25.509    1295.010

 6  7  8  9  10  11  12  13  14  15  16  27  31  32  33  34  35 0
 6-311+G(2d,p)
 ****
 36  37 0
 6-311+G(2d,p)
 ****
 1  2  3  4  5  17  18  19  20  21  22  23  24  25 0
 3-21G
 ****
 26  28  29  30  38  39  40  41  42  43  44  45 0
 3-21G
 ****


