%nproc=1
%NoSave
%Mem=1900MB
#P OB98/GEN NMR

erre ene a

0 1
  C      -98.078      31.691     170.514
  O      -99.334      31.679     169.876
  H      -97.548      30.769     170.256
  H      -98.199      31.723     171.599
  H      -97.480      32.542     170.177
  P     -100.348      32.901     170.114
  C     -101.496      31.609     172.012
  O     -101.672      32.236     170.748
  C     -102.811      31.009     172.512
  O     -103.763      32.075     172.772
  C     -103.466      30.034     171.520
  O     -103.871      28.847     172.206
  C     -104.694      30.791     171.038
  O     -105.725      29.932     170.560
  C     -105.035      31.612     172.285
  N     -105.950      32.706     171.987
  C     -107.301      32.475     172.264
  O     -107.660      31.396     172.741
  N     -108.218      33.444     171.948
  C     -107.824      34.531     171.360
  N     -108.787      35.439     171.045
  C     -106.412      34.804     171.023
  C     -105.537      33.862     171.365
  O     -100.584      33.758     168.916
  O      -99.734      33.708     171.353
  H     -105.949      29.290     171.271
  H     -100.078      34.632     171.334
  H     -106.138      35.725     170.528
  H     -104.477      33.973     171.157
  H     -105.488      30.979     173.060
  H     -104.407      31.461     170.218
  H     -102.813      29.763     170.690
  H     -102.623      30.523     173.479
  H     -109.743      35.208     171.290
  H     -101.118      32.352     172.723
  H     -108.606      36.308     170.568
  H     -100.759      30.807     171.900
  P     -102.695      27.957     172.837
  C     -101.720      27.206     170.554
  O     -102.316      26.812     171.780
  O     -103.426      27.170     174.023
  O     -101.545      28.765     173.345
  H     -103.117      27.504     174.885
  H     -101.526      26.339     169.957
  H     -100.800      27.716     170.752
  H     -102.384      27.860     170.028

 6  7  8  9  10  11  12  13  14  15  16  26  30  31  32  33  35 0
 6-311+G(2d,p)
 ****
 37  38 0
 6-311+G(2d,p)
 ****
 1  2  3  4  5  17  18  19  20  21  22  23  24  25 0
 3-21G
 ****
 27  28  29  34  36  39  40  41  42  43  44  45  46 0
 3-21G
 ****


