%nproc=1
%NoSave
%Mem=1900MB
#P OB98/GEN NMR

erre ene a

0 1
  C      -53.411     608.685     369.698
  O      -54.408     609.681     369.622
  H      -52.925     608.749     370.672
  H      -52.657     608.830     368.919
  H      -53.856     607.683     369.599
  P      -55.231     609.835     368.257
  C      -57.550     609.456     369.345
  O      -56.696     610.372     368.647
  C      -58.616     610.229     370.137
  O      -57.981     610.817     371.290
  C      -59.247     611.368     369.300
  O      -60.674     611.310     369.259
  C      -58.606     612.625     369.891
  O      -59.380     613.795     369.751
  C      -58.307     612.212     371.335
  N      -57.231     612.980     371.965
  C      -57.478     614.309     372.243
  O      -58.540     614.909     372.036
  N      -56.427     615.011     372.811
  C      -55.195     614.490     373.119
  O      -54.295     615.153     373.621
  C      -54.990     613.073     372.768
  C      -56.004     612.396     372.215
  O      -55.230     608.648     367.351
  O      -54.568     611.105     367.545
  H      -60.292     613.582     370.038
  H      -53.972     610.818     366.829
  H      -56.590     615.972     373.031
  H      -54.030     612.644     372.973
  H      -55.890     611.346     371.946
  H      -59.210     612.340     371.958
  H      -57.648     612.795     369.361
  H      -58.966     611.275     368.250
  H      -59.375     609.518     370.483
  H      -56.918     608.871     370.040
  H      -58.025     608.773     368.635
  P      -61.578     611.947     368.114
  C      -62.698     609.795     367.112
  O      -62.842     610.986     367.879
  O      -60.841     612.417     366.918
  O      -62.219     613.239     368.839
  H      -62.329     613.926     368.137
  H      -63.638     609.286     367.063
  H      -61.972     609.159     367.574
  H      -62.376     610.045     366.123

 6  7  8  9  10  11  12  13  14  15  16  26  31  32  33  34  35 0
 6-311+G(2d,p)
 ****
 36  37 0
 6-311+G(2d,p)
 ****
 1  2  3  4  5  17  18  19  20  21  22  23  24  25 0
 3-21G
 ****
 27  28  29  30  38  39  40  41  42  43  44  45 0
 3-21G
 ****


