%nproc=1
%NoSave
%Mem=1900MB
#P OB98/GEN NMR

erre ene a

0 1
  C     -659.303    -896.410     -15.459
  O     -660.162    -895.910     -14.418
  P     -659.743    -896.160     -12.885
  C     -661.443    -897.810     -11.764
  O     -661.053    -896.460     -11.993
  C     -662.593    -897.890     -10.740
  O     -662.106    -897.590      -9.400
  C     -663.762    -896.920     -11.011
  O     -664.960    -897.550     -10.565
  C     -663.434    -895.740     -10.113
  O     -664.561    -894.910      -9.837
  C     -662.875    -896.490      -8.881
  N     -662.069    -895.640      -8.001
  C     -662.752    -894.910      -7.017
  O     -664.000    -894.860      -6.912
  N     -661.975    -894.180      -6.159
  C     -660.593    -894.080      -6.217
  O     -659.944    -893.380      -5.463
  C     -659.940    -894.870      -7.295
  C     -660.712    -895.600      -8.115
  O     -659.348    -894.680     -12.398
  O     -658.608    -897.110     -12.658
  H     -664.985    -894.700     -10.676
  H     -658.493    -894.720     -11.891
  H     -662.429    -893.630      -5.461
  H     -658.865    -894.820      -7.346
  H     -660.253    -896.200      -8.870
  H     -663.721    -896.930      -8.325
  H     -662.668    -895.110     -10.594
  H     -663.847    -896.630     -12.071
  H     -662.968    -898.920     -10.720
  H     -660.599    -898.370     -11.379
  H     -661.769    -898.250     -12.716
  P     -665.943    -898.210     -11.673
  C     -667.941    -896.730     -10.876
  O     -667.436    -898.020     -11.155
  O     -665.651    -899.770     -11.409
  O     -665.641    -897.810     -13.082
  H     -665.661    -900.000     -10.448
  H     -667.602    -896.000     -11.625
  H     -667.593    -896.410      -9.899
  H     -669.020    -896.760     -10.898
  H     -659.719    -896.164     -16.414
  H     -659.217    -897.473     -15.371
  H     -658.334    -895.965     -15.366

 3  4  5  6  7  8  9  10  11  12  13  23  28  29  30  31  32 0
 6-311+G(2d,p)
 ****
 33  34 0
 6-311+G(2d,p)
 ****
 1  2  14  15  16  17  18  19  20  21  22  24  25  26 0
 3-21G
 ****
 27  35  36  37  38  39  40  41  42  43  44  45 0
 3-21G
 ****


