%nproc=1
%NoSave
%Mem=1900MB
#P OB98/GEN NMR

erre ene a

0 1
  C     -909.309    -361.937     270.986
  O     -910.066    -361.284     271.995
  H     -908.756    -361.190     270.419
  H     -909.985    -362.467     270.306
  H     -908.597    -362.646     271.419
  P     -910.741    -362.159     273.154
  C     -908.973    -361.461     274.897
  O     -910.346    -361.458     274.539
  C     -908.479    -360.049     275.206
  O     -908.107    -359.387     273.961
  C     -909.536    -359.161     275.891
  O     -908.830    -358.234     276.730
  C     -910.141    -358.428     274.709
  O     -910.856    -357.275     275.117
  C     -908.894    -358.191     273.856
  N     -909.226    -357.869     272.459
  C     -909.250    -356.520     272.117
  O     -909.031    -355.615     272.937
  N     -909.567    -356.231     270.814
  C     -909.911    -357.140     269.865
  O     -910.216    -356.821     268.731
  C     -909.920    -358.548     270.292
  C     -909.572    -358.847     271.552
  O     -910.471    -363.627     273.088
  O     -912.303    -361.836     273.022
  H     -910.266    -356.678     275.605
  H     -912.828    -362.605     273.315
  H     -909.580    -355.255     270.554
  H     -910.194    -359.291     269.564
  H     -909.575    -359.883     271.894
  H     -908.301    -357.364     274.264
  H     -910.846    -359.084     274.177
  H     -910.264    -359.729     276.477
  H     -907.563    -360.105     275.810
  H     -908.404    -361.882     274.053
  H     -908.817    -362.111     275.766
  P     -909.408    -357.774     278.164
  C     -907.330    -358.395     279.549
  O     -908.177    -357.353     279.107
  O     -910.357    -358.761     278.794
  O     -910.161    -356.395     277.862
  H     -910.878    -356.253     278.521
  H     -906.555    -357.988     280.165
  H     -906.894    -358.883     278.703
  H     -907.900    -359.102     280.114

 6  7  8  9  10  11  12  13  14  15  16  26  31  32  33  34  35 0
 6-311+G(2d,p)
 ****
 36  37 0
 6-311+G(2d,p)
 ****
 1  2  3  4  5  17  18  19  20  21  22  23  24  25 0
 3-21G
 ****
 27  28  29  30  38  39  40  41  42  43  44  45 0
 3-21G
 ****


