%nproc=1
%NoSave
%Mem=1900MB
#P OB98/GEN NMR

erre ene a

0 1
  C      440.524     254.758     971.382
  O      439.955     255.299     970.177
  P      439.138     256.671     970.283
  C      440.397     257.492     968.146
  O      439.945     257.801     969.452
  C      440.900     258.749     967.445
  O      439.834     259.713     967.237
  C      441.970     259.503     968.204
  O      443.263     258.940     968.032
  C      441.902     260.885     967.552
  O      442.622     260.857     966.299
  C      440.406     261.045     967.302
  N      437.374     265.058     968.293
  C      437.932     264.595     967.151
  N      438.750     263.553     966.967
  C      438.951     262.907     968.128
  C      438.451     263.241     969.384
  C      437.619     264.379     969.443
  N      437.055     264.832     970.610
  N      438.883     262.364     970.336
  C      439.625     261.494     969.686
  N      439.712     261.778     968.343
  O      439.364     257.121     971.807
  O      437.690     256.554     969.946
  H      442.124     260.266     965.701
  H      438.563     257.580     972.136
  H      437.700     265.178     966.247
  H      440.132     260.636     970.136
  H      440.199     261.557     966.354
  H      442.356     261.665     968.179
  H      441.716     259.571     969.278
  H      441.298     258.462     966.456
  H      439.592     257.032     967.561
  H      436.450     265.634     970.566
  H      437.209     264.326     971.459
  H      441.200     256.751     968.211
  P      444.192     258.755     969.325
  C      443.943     256.191     969.021
  O      443.868     257.290     969.893
  O      443.513     259.758     970.390
  O      445.630     259.058     969.090
  H      444.196     260.102     971.001
  H      443.993     255.270     969.617
  H      444.828     256.246     968.390
  H      443.043     256.141     968.398
  H      441.036     253.846     971.156
  H      439.744     254.564     972.089
  H      441.215     255.462     971.798

 3  4  5  6  7  8  9  10  11  12  22  25  29  30  31  32 0
 6-311+G(2d,p)
 ****
 33  36  37 0
 6-311+G(2d,p)
 ****
 1  2  13  14  15  16  17  18  19  20  21  23  24  26 0
 3-21G
 ****
 27  28  34  35  38  39  40  41  42  43  44  45  46  47  48 0
 3-21G
 ****


