%nproc=1
%NoSave
%Mem=1900MB
#P OB98/GEN NMR

erre ene a

0 1
  C       28.031     197.913    -206.180
  O       29.039     197.223    -205.461
  H       28.120     198.988    -205.999
  H       28.170     197.720    -207.249
  H       27.041     197.562    -205.883
  P       28.918     197.228    -203.862
  C       30.829     198.942    -203.425
  O       30.385     197.595    -203.315
  C       32.332     198.986    -203.705
  O       33.012     198.120    -202.752
  C       32.707     198.515    -205.112
  O       33.777     199.332    -205.602
  C       33.200     197.095    -204.896
  O       34.099     196.673    -205.911
  C       33.835     197.209    -203.508
  N       35.646     192.445    -203.859
  C       35.828     193.539    -204.628
  N       35.316     194.774    -204.460
  C       34.571     194.832    -203.334
  C       34.294     193.801    -202.453
  C       34.862     192.549    -202.754
  N       34.650     191.420    -202.000
  N       33.469     194.244    -201.438
  C       33.251     195.516    -201.704
  N       33.899     195.918    -202.840
  O       28.769     195.667    -203.526
  O       27.797     198.034    -203.298
  H       34.877     197.272    -205.907
  H       27.846     195.388    -203.684
  H       36.470     193.401    -205.500
  H       32.636     196.187    -201.112
  H       34.854     197.606    -203.542
  H       32.350     196.409    -204.882
  H       31.869     198.556    -205.811
  H       32.690     200.008    -203.513
  H       30.611     199.462    -202.488
  H       35.046     190.548    -202.321
  H       34.024     191.466    -201.214
  H       30.288     199.433    -204.240
  P       33.368     200.760    -206.226
  C       33.903     200.325    -208.724
  O       34.261     201.019    -207.534
  O       33.942     201.808    -205.159
  O       31.895     200.928    -206.414
  H       33.255     202.455    -204.918
  H       34.579     200.592    -209.509
  H       32.906     200.591    -209.006
  H       33.955     199.270    -208.551

 6  7  8  9  10  11  12  13  14  15  25  28  32  33  34  35 0
 6-311+G(2d,p)
 ****
 36  39  40 0
 6-311+G(2d,p)
 ****
 1  2  3  4  5  16  17  18  19  20  21  22  23  24 0
 3-21G
 ****
 26  27  29  30  31  37  38  41  42  43  44  45  46  47 0
 3-21G
 ****
 48 0
 3-21G
 ****


