%nproc=1
%NoSave
%Mem=1900MB
#P OB98/GEN NMR

erre ene a

0 1
  C      595.974    -424.275       1.615
  O      594.714    -423.792       1.200
  H      596.298    -423.703       2.492
  H      596.716    -424.146       0.824
  H      595.907    -425.328       1.893
  P      594.028    -424.469      -0.082
  C      592.265    -425.427       1.551
  O      593.172    -425.705       0.489
  C      590.829    -425.557       1.064
  O      590.598    -426.866       0.513
  C      589.784    -425.353       2.169
  O      589.574    -423.963       2.395
  C      588.586    -426.041       1.526
  O      588.007    -425.186       0.528
  C      589.245    -427.265       0.876
  N      587.225    -431.804       1.899
  C      586.839    -430.851       0.975
  N      585.729    -431.128       0.259
  N      587.468    -429.717       0.796
  C      588.516    -429.549       1.634
  C      588.994    -430.412       2.590
  C      588.316    -431.687       2.748
  O      588.641    -432.579       3.542
  N      590.041    -429.871       3.294
  C      590.228    -428.697       2.731
  N      589.320    -428.450       1.722
  O      594.942    -424.837      -1.212
  O      592.908    -423.417      -0.529
  H      587.252    -425.673       0.147
  H      593.255    -422.800      -1.203
  H      586.689    -432.647       2.003
  H      591.005    -427.991       3.003
  H      588.735    -427.567      -0.047
  H      587.800    -426.273       2.246
  H      585.058    -431.822       0.553
  H      590.048    -425.890       3.079
  H      585.398    -430.412      -0.385
  H      590.687    -424.831       0.247
  H      592.467    -424.411       1.897
  H      592.442    -426.124       2.379
  P      589.605    -423.363       3.887
  C      591.540    -421.800       3.175
  O      591.095    -422.814       4.079
  O      589.149    -424.312       4.952
  O      588.745    -422.019       3.797
  H      587.780    -422.160       3.955
  H      592.546    -421.526       3.414
  H      590.906    -420.942       3.261
  H      591.500    -422.173       2.173

 6  7  8  9  10  11  12  13  14  15  26  29  33  34 0
 6-311+G(2d,p)
 ****
 36  38  39  40  41 0
 6-311+G(2d,p)
 ****
 1  2  3  4  5  16  17  18  19  20  21  22  23  24  25 0
 3-21G
 ****
 27  28  30  31  32  35  37  42  43  44  45  46  47 0
 3-21G
 ****
 48  49 0
 3-21G
 ****


