%nproc=1
%NoSave
%Mem=1900MB
#P OB98/GEN NMR

erre ene a

0 1
  C      131.160     283.137    -819.629
  O      130.187     282.109    -819.734
  H      131.277     283.447    -818.587
  H      132.125     282.747    -819.989
  H      130.874     283.996    -820.248
  P      128.698     282.492    -819.285
  C      128.288     280.897    -817.272
  O      128.062     281.152    -818.656
  C      128.004     279.429    -816.959
  O      126.641     279.109    -817.307
  C      128.867     278.432    -817.722
  O      130.152     278.288    -817.142
  C      128.042     277.164    -817.573
  O      128.267     276.600    -816.266
  C      126.608     277.695    -817.682
  N      125.393     274.449    -821.459
  C      125.873     274.252    -820.201
  N      126.148     275.162    -819.251
  C      125.865     276.397    -819.688
  C      125.358     276.768    -820.924
  C      125.125     275.723    -821.834
  N      124.693     275.953    -823.136
  N      125.209     278.135    -821.003
  C      125.647     278.587    -819.849
  N      126.046     277.580    -819.016
  O      127.931     282.654    -820.687
  O      128.583     283.717    -818.442
  H      129.233     276.489    -816.172
  H      127.901     283.598    -820.931
  H      126.059     273.202    -819.936
  H      125.694     279.638    -819.571
  H      125.921     277.194    -816.983
  H      128.299     276.394    -818.313
  H      128.937     278.681    -818.797
  H      128.103     279.285    -815.874
  H      127.626     281.535    -816.670
  H      124.999     275.240    -823.796
  H      124.768     276.919    -823.443
  H      129.337     281.139    -817.030
  P      131.423     278.254    -818.118
  C      132.470     276.464    -816.570
  O      132.658     277.694    -817.260
  O      131.758     279.798    -818.325
  O      131.193     277.566    -819.440
  H      131.766     280.022    -819.281
  H      133.366     276.210    -816.043
  H      132.240     275.692    -817.274
  H      131.663     276.565    -815.874

 6  7  8  9  10  11  12  13  14  15  25  28  32  33  34  35 0
 6-311+G(2d,p)
 ****
 36  39  40 0
 6-311+G(2d,p)
 ****
 1  2  3  4  5  16  17  18  19  20  21  22  23  24 0
 3-21G
 ****
 26  27  29  30  31  37  38  41  42  43  44  45  46  47  48 0
 3-21G
 ****


