%nproc=1
%NoSave
%Mem=1900MB
#P OB98/GEN NMR

erre ene a

0 1
  C      -19.876    -397.611    -406.360
  O      -19.492    -398.949    -406.017
  P      -18.166    -399.299    -405.180
  C      -19.686    -399.868    -403.163
  O      -18.521    -399.187    -403.616
  C      -19.323    -400.928    -402.122
  O      -18.558    -401.994    -402.735
  C      -18.442    -400.448    -400.981
  O      -19.147    -399.640    -400.053
  C      -17.946    -401.774    -400.406
  O      -18.893    -402.330    -399.483
  C      -17.852    -402.659    -401.663
  N      -16.484    -402.959    -402.047
  C      -16.255    -404.207    -402.640
  O      -17.173    -405.020    -402.746
  N      -14.991    -404.501    -403.087
  C      -14.021    -403.673    -402.863
  N      -12.793    -404.007    -403.339
  C      -14.191    -402.409    -402.115
  C      -15.436    -402.118    -401.746
  O      -16.966    -398.502    -405.581
  O      -17.921    -400.864    -405.409
  H      -16.974    -401.065    -405.304
  H      -18.680    -403.279    -399.398
  H      -13.345    -401.766    -401.916
  H      -15.652    -401.200    -401.208
  H      -18.394    -403.600    -401.503
  H      -17.000    -401.661    -399.868
  H      -17.590    -399.889    -401.389
  H      -20.260    -401.351    -401.728
  H      -12.711    -404.875    -403.857
  H      -20.159    -400.358    -404.020
  H      -11.976    -403.425    -403.239
  H      -20.389    -399.135    -402.747
  P      -18.545    -398.185    -399.752
  C      -20.158    -396.816    -401.254
  O      -18.837    -397.263    -401.030
  O      -16.959    -398.415    -399.798
  O      -18.968    -397.598    -398.444
  H      -16.532    -397.883    -399.104
  H      -20.122    -395.872    -401.805
  H      -20.699    -396.661    -400.319
  H      -20.688    -397.556    -401.862
  H      -20.790    -397.634    -406.916
  H      -19.108    -397.161    -406.954
  H      -20.016    -397.040    -405.466

 3  4  5  6  7  8  9  10  11  12  13  24  27  28  29  30  32 0
 6-311+G(2d,p)
 ****
 34  35 0
 6-311+G(2d,p)
 ****
 1  2  14  15  16  17  18  19  20  21  22  23  25  26 0
 3-21G
 ****
 31  33  36  37  38  39  40  41  42  43  44  45  46 0
 3-21G
 ****


