%nproc=1
%NoSave
%Mem=1900MB
#P OB98/GEN NMR

erre ene a

0 1
  C       47.398    -195.413    -237.959
  O       46.974    -196.068    -239.137
  H       48.137    -194.654    -238.229
  H       47.867    -196.128    -237.279
  H       46.556    -194.921    -237.463
  P       45.811    -197.167    -239.035
  C       47.403    -199.183    -239.121
  O       46.459    -198.462    -238.342
  C       47.402    -200.661    -238.733
  O       47.862    -200.784    -237.363
  C       46.023    -201.321    -238.827
  O       46.191    -202.656    -239.304
  C       45.548    -201.351    -237.387
  O       44.616    -202.403    -237.145
  C       46.862    -201.513    -236.626
  N       47.055    -202.827    -231.753
  C       47.288    -203.577    -232.887
  N       47.594    -204.879    -232.705
  N       47.223    -203.093    -234.100
  C       46.920    -201.773    -234.136
  C       46.666    -200.923    -233.087
  C       46.727    -201.474    -231.748
  O       46.518    -200.864    -230.707
  N       46.369    -199.658    -233.531
  C       46.440    -199.747    -234.847
  N       46.761    -201.011    -235.264
  O       45.081    -197.449    -240.309
  O       44.835    -196.596    -237.906
  H       44.382    -202.366    -236.192
  H       44.057    -196.166    -238.307
  H       47.109    -203.251    -230.843
  H       46.263    -198.933    -235.538
  H       47.178    -202.561    -236.556
  H       45.063    -200.398    -237.137
  H       47.679    -205.316    -231.800
  H       45.333    -200.776    -239.478
  H       47.793    -205.444    -233.523
  H       48.132    -201.185    -239.361
  H       48.395    -198.756    -238.941
  H       47.158    -199.074    -240.183
  P       45.716    -203.008    -240.794
  C       43.423    -203.821    -239.950
  O       44.114    -202.949    -240.837
  O       46.325    -204.233    -241.393
  O       46.134    -201.695    -241.618
  H       46.338    -201.952    -242.538
  H       42.368    -203.690    -240.071
  H       43.697    -203.594    -238.941
  H       43.684    -204.835    -240.171

 6  7  8  9  10  11  12  13  14  15  26  29  33  34 0
 6-311+G(2d,p)
 ****
 36  38  39  40  41 0
 6-311+G(2d,p)
 ****
 1  2  3  4  5  16  17  18  19  20  21  22  23  24  25 0
 3-21G
 ****
 27  28  30  31  32  35  37  42  43  44  45  46  47 0
 3-21G
 ****
 48  49 0
 3-21G
 ****


