%nproc=1
%NoSave
%Mem=1900MB
#P OB98/GEN NMR

erre ene a

0 1
  C      973.230     970.241     -96.128
  O      972.314     970.680     -97.140
  P      971.320     969.690     -97.911
  C      972.103     970.035    -100.342
  O      971.065     970.243     -99.396
  C      971.801     970.739    -101.679
  O      971.637     972.150    -101.469
  C      972.898     970.617    -102.729
  O      972.885     969.328    -103.318
  C      972.529     971.758    -103.676
  O      971.494     971.365    -104.586
  C      972.034     972.829    -102.681
  N      973.026     973.855    -102.430
  C      973.318     974.728    -103.500
  O      972.781     974.536    -104.602
  N      974.213     975.731    -103.303
  C      974.825     975.838    -102.161
  N      975.700     976.883    -102.020
  C      974.610     974.912    -101.041
  C      973.710     973.964    -101.238
  O      970.069     969.381     -97.157
  O      972.173     968.353     -98.157
  H      971.830     970.589    -105.060
  H      971.570     967.589     -98.151
  H      975.162     975.026    -100.125
  H      973.489     973.231    -100.468
  H      971.118     973.297    -103.070
  H      973.396     972.084    -104.273
  H      973.879     970.815    -102.280
  H      970.858     970.339    -102.059
  H      975.818     977.512    -102.809
  H      972.195     968.952    -100.526
  H      976.226     977.053    -101.179
  H      973.045     970.398     -99.925
  P      974.252     968.522    -103.541
  C      974.067     968.005    -106.046
  O      974.023     967.483    -104.724
  O      974.870     967.961    -102.303
  O      975.234     969.613    -104.214
  H      976.142     969.429    -103.939
  H      974.300     967.177    -106.735
  H      974.830     968.773    -106.140
  H      973.083     968.414    -106.293
  H      973.785     971.079     -95.761
  H      973.904     969.522     -96.545
  H      972.685     969.794     -95.323

 3  4  5  6  7  8  9  10  11  12  13  23  27  28  29  30  32 0
 6-311+G(2d,p)
 ****
 34  35 0
 6-311+G(2d,p)
 ****
 1  2  14  15  16  17  18  19  20  21  22  24  25  26 0
 3-21G
 ****
 31  33  36  37  38  39  40  41  42  43  44  45  46 0
 3-21G
 ****


