%nproc=1
%NoSave
%Mem=1900MB
#P OB98/GEN NMR

erre ene a

0 1
  C       51.967      33.151    -164.527
  O       52.783      32.148    -163.950
  P       53.121      32.277    -162.384
  C       55.189      33.730    -162.988
  O       53.997      33.611    -162.217
  C       56.256      34.532    -162.242
  O       55.792      35.895    -162.082
  C       56.598      33.981    -160.856
  O       57.998      34.161    -160.645
  C       55.836      34.896    -159.914
  O       56.424      34.925    -158.614
  C       55.893      36.228    -160.680
  N       54.831      37.143    -160.272
  C       55.205      38.462    -159.999
  O       56.393      38.786    -160.031
  N       54.233      39.369    -159.649
  C       53.012      38.964    -159.478
  N       52.087      39.900    -159.133
  C       52.600      37.556    -159.634
  C       53.544      36.713    -160.050
  O       54.184      31.104    -162.149
  O       51.938      32.159    -161.479
  H       57.339      35.270    -158.702
  H       54.105      30.737    -161.247
  H       51.575      37.266    -159.445
  H       53.326      35.665    -160.214
  H       56.859      36.724    -160.524
  H       54.799      34.552    -159.817
  H       56.341      32.924    -160.743
  H       57.157      34.568    -162.869
  H       52.398      40.856    -159.017
  H       54.958      34.252    -163.920
  H       51.111      39.680    -158.978
  H       55.560      32.730    -163.240
  P       58.786      33.018    -159.843
  C       59.086      34.524    -157.785
  O       58.514      33.333    -158.295
  O       60.308      33.501    -160.007
  O       58.620      31.601    -160.285
  H       60.906      32.843    -159.609
  H       58.712      34.686    -156.771
  H       58.806      35.380    -158.404
  H       60.175      34.428    -157.747
  H       51.825      32.941    -165.566
  H       52.442      34.104    -164.418
  H       51.018      33.167    -164.033

 3  4  5  6  7  8  9  10  11  12  13  21  23  27  28  29  30  32 0
 6-311+G(2d,p)
 ****
 34  35 0
 6-311+G(2d,p)
 ****
 1  2  14  15  16  17  18  19  20  22  24  25  26 0
 3-21G
 ****
 31  33  36  37  38  39  40  41  42  43  44  45  46 0
 3-21G
 ****


