%nproc=1
%NoSave
%Mem=1900MB
#P OB98/GEN NMR

erre ene a

0 1
  C      889.021     601.149    -251.293
  O      888.511     601.930    -250.186
  P      887.862     601.116    -248.991
  C      890.005     601.406    -247.519
  O      889.067     600.495    -248.082
  C      890.421     600.911    -246.130
  O      889.295     600.760    -245.237
  C      891.089     599.529    -246.140
  O      892.415     599.609    -246.647
  C      890.974     599.141    -244.681
  O      892.007     599.787    -243.907
  C      889.598     599.725    -244.307
  N      887.825     595.427    -242.102
  C      888.917     596.184    -241.868
  N      889.333     597.309    -242.493
  C      888.452     597.651    -243.470
  C      887.291     597.001    -243.818
  C      886.982     595.821    -243.091
  N      885.865     595.055    -243.345
  N      886.661     597.654    -244.852
  C      887.428     598.680    -245.140
  N      888.531     598.728    -244.316
  O      887.229     599.821    -249.679
  O      886.835     601.874    -248.221
  H      892.080     599.291    -243.065
  H      886.255     599.894    -249.704
  H      889.557     595.832    -241.067
  H      887.260     599.395    -245.934
  H      889.598     600.176    -243.289
  H      891.056     598.041    -244.517
  H      890.495     598.840    -246.781
  H      891.119     601.645    -245.695
  H      889.575     602.408    -247.435
  H      885.744     594.204    -242.840
  H      885.264     595.296    -244.143
  H      890.860     601.482    -248.186
  P      892.797     598.627    -247.866
  C      894.286     600.372    -249.009
  O      893.097     599.622    -249.091
  O      891.375     597.998    -248.243
  O      893.886     597.646    -247.551
  H      890.681     598.684    -248.307
  H      894.386     600.995    -249.919
  H      895.161     599.702    -248.942
  H      894.255     601.045    -248.141
  H      889.432     601.804    -252.033
  H      888.225     600.579    -251.724
  H      889.784     600.486    -250.941

 3  4  5  6  7  8  9  10  11  12  22  25  29  30  31  32 0
 6-311+G(2d,p)
 ****
 33  36  37 0
 6-311+G(2d,p)
 ****
 1  2  13  14  15  16  17  18  19  20  21  23  24  26 0
 3-21G
 ****
 27  28  34  35  38  39  40  41  42  43  44  45  46  47  48 0
 3-21G
 ****


