%nproc=1
%NoSave
%Mem=1900MB
#P OB98/GEN NMR

erre ene a

0 1
  C     -295.996    -201.665    -259.835
  O     -295.458    -202.936    -260.124
  P     -295.060    -203.353    -261.620
  C     -292.681    -202.493    -261.117
  O     -293.781    -202.460    -262.021
  C     -291.468    -201.779    -261.727
  O     -290.527    -201.449    -260.660
  C     -290.724    -202.650    -262.768
  O     -290.517    -202.015    -264.034
  C     -289.461    -203.047    -262.020
  O     -288.398    -203.446    -262.867
  C     -289.217    -201.822    -261.140
  N     -288.284    -202.084    -260.049
  C     -287.665    -200.979    -259.464
  O     -287.873    -199.817    -259.788
  N     -286.738    -201.257    -258.499
  C     -286.280    -202.495    -258.152
  O     -285.372    -202.661    -257.349
  C     -286.942    -203.619    -258.836
  C     -287.909    -203.376    -259.717
  O     -296.170    -203.313    -262.613
  O     -294.404    -204.801    -261.435
  H     -288.757    -204.088    -263.512
  H     -293.626    -204.823    -260.850
  H     -286.280    -200.466    -258.063
  H     -286.595    -204.614    -258.587
  H     -288.409    -204.185    -260.240
  H     -288.835    -200.975    -261.720
  H     -289.707    -203.908    -261.388
  H     -291.300    -203.550    -263.012
  H     -291.819    -200.844    -262.175
  H     -292.420    -203.531    -260.911
  H     -292.970    -202.029    -260.166
  P     -289.943    -202.736    -265.336
  C     -292.304    -203.710    -265.850
  O     -290.918    -203.956    -265.708
  O     -288.494    -203.086    -265.283
  O     -290.226    -201.673    -266.504
  H     -289.556    -201.772    -267.205
  H     -292.848    -204.617    -265.589
  H     -292.518    -203.447    -266.885
  H     -292.642    -202.902    -265.190
  H     -296.191    -201.590    -258.786
  H     -296.909    -201.532    -260.377
  H     -295.297    -200.908    -260.123

 3  4  5  6  7  8  9  10  11  12  13  23  28  29  30  31  32 0
 6-311+G(2d,p)
 ****
 33  34 0
 6-311+G(2d,p)
 ****
 1  2  14  15  16  17  18  19  20  21  22  24  25  26  27 0
 3-21G
 ****
 35  36  37  38  39  40  41  42  43  44  45 0
 3-21G
 ****


