%nproc=1
%NoSave
%Mem=1900MB
#P OB98/GEN NMR

erre ene a

0 1
  C      241.540     797.389    -111.761
  O      240.472     796.953    -110.947
  P      240.303     797.528    -109.462
  C      240.285     795.342    -108.092
  O      239.514     796.435    -108.585
  C      239.379     794.321    -107.399
  O      238.683     794.920    -106.280
  C      238.297     793.753    -108.292
  O      238.810     792.842    -109.247
  C      237.359     793.149    -107.251
  O      237.845     791.859    -106.818
  C      237.469     794.170    -106.099
  N      236.301     795.036    -106.028
  C      235.982     795.529    -104.761
  O      236.608     795.171    -103.771
  N      234.943     796.427    -104.649
  C      234.218     796.698    -105.686
  N      233.239     797.648    -105.540
  C      234.422     796.074    -107.009
  C      235.490     795.278    -107.118
  O      239.761     798.916    -109.371
  O      241.789     797.459    -108.852
  H      242.007     798.321    -108.455
  H      238.601     792.027    -106.206
  H      233.750     796.294    -107.843
  H      235.737     794.789    -108.049
  H      237.586     793.652    -105.143
  H      236.349     792.999    -107.639
  H      237.777     794.573    -108.810
  H      240.025     793.515    -107.013
  H      233.127     798.056    -104.620
  H      241.026     795.730    -107.378
  H      232.850     798.153    -106.322
  H      240.822     794.874    -108.929
  P      238.854     793.335    -110.781
  C      239.395     791.011    -111.799
  O      239.822     792.351    -111.576
  O      239.668     794.713    -110.694
  O      237.506     793.540    -111.406
  H      239.311     795.353    -111.344
  H      239.979     790.604    -112.632
  H      238.333     790.979    -112.065
  H      239.574     790.420    -110.906
  H      241.488     796.898    -112.710
  H      242.470     797.152    -111.287
  H      241.472     798.447    -111.902

 3  4  5  6  7  8  9  10  11  12  13  24  27  28  29  30  32 0
 6-311+G(2d,p)
 ****
 34  35 0
 6-311+G(2d,p)
 ****
 1  2  14  15  16  17  18  19  20  21  22  23  25  26 0
 3-21G
 ****
 31  33  36  37  38  39  40  41  42  43  44  45  46 0
 3-21G
 ****


