%nproc=1
%NoSave
%Mem=1900MB
#P OB98/GEN NMR

erre ene a

0 1
  C      -78.862     122.101     179.580
  O      -79.772     121.573     178.637
  H      -78.349     121.270     180.072
  H      -79.391     122.683     180.339
  H      -78.116     122.726     179.082
  P      -80.706     122.585     177.819
  C      -80.063     121.947     175.402
  O      -81.052     121.870     176.424
  C      -79.797     120.554     174.822
  O      -78.922     119.852     175.740
  C      -81.082     119.729     174.654
  O      -81.245     119.204     173.339
  C      -81.013     118.736     175.809
  O      -81.715     117.529     175.592
  C      -79.506     118.569     176.031
  N      -79.151     118.135     177.380
  C      -78.264     117.070     177.496
  O      -77.735     116.483     176.554
  N      -77.970     116.681     178.779
  C      -78.470     117.230     179.920
  O      -78.165     116.843     181.043
  C      -79.421     118.338     179.732
  C      -79.715     118.732     178.490
  O      -80.195     123.981     177.696
  O      -82.104     122.539     178.601
  H      -81.334     117.103     174.797
  H      -82.193     123.336     179.156
  H      -77.318     115.917     178.874
  H      -79.846     118.791     180.617
  H      -80.411     119.547     178.316
  H      -79.094     117.841     175.331
  H      -81.455     119.208     176.695
  H      -81.969     120.361     174.784
  H      -79.259     120.663     173.872
  H      -79.150     122.355     175.847
  H      -80.405     122.620     174.608
  P      -82.559     119.372     172.450
  C      -81.680     121.063     170.649
  O      -82.110     119.746     170.961
  O      -83.646     120.194     173.056
  O      -83.109     117.861     172.313
  H      -84.085     117.923     172.269
  H      -81.423     121.118     169.612
  H      -80.824     121.309     171.242
  H      -82.469     121.755     170.858

 6  7  8  9  10  11  12  13  14  15  16  26  31  32  33  34  35 0
 6-311+G(2d,p)
 ****
 36  37 0
 6-311+G(2d,p)
 ****
 1  2  3  4  5  17  18  19  20  21  22  23  24  25 0
 3-21G
 ****
 27  28  29  30  38  39  40  41  42  43  44  45 0
 3-21G
 ****


