%nproc=1
%NoSave
%Mem=1900MB
#P OB98/GEN NMR

erre ene a

0 1
  C      -26.768    -219.796    -407.758
  O      -26.967    -218.596    -408.507
  P      -25.834    -218.101    -409.522
  C      -27.359    -217.610    -411.554
  O      -26.472    -217.077    -410.576
  C      -28.554    -216.673    -411.748
  O      -29.386    -216.621    -410.566
  C      -28.136    -215.228    -411.995
  O      -27.512    -214.945    -413.228
  C      -29.412    -214.464    -411.669
  O      -30.313    -214.446    -412.775
  C      -29.994    -215.312    -410.509
  N      -29.792    -214.687    -409.202
  C      -30.435    -213.471    -409.000
  O      -31.102    -212.906    -409.868
  N      -30.256    -212.901    -407.770
  C      -29.485    -213.394    -406.759
  O      -29.344    -212.828    -405.683
  C      -28.812    -214.674    -407.036
  C      -28.993    -215.251    -408.225
  O      -24.980    -219.171    -410.113
  O      -24.940    -217.128    -408.601
  H      -29.866    -213.985    -413.508
  H      -24.003    -217.289    -408.824
  H      -30.721    -212.018    -407.604
  H      -28.192    -215.094    -406.262
  H      -28.505    -216.195    -408.452
  H      -31.073    -215.461    -410.646
  H      -29.201    -213.423    -411.406
  H      -27.401    -214.954    -411.222
  H      -29.167    -217.056    -412.568
  H      -27.699    -218.599    -411.241
  H      -26.808    -217.754    -412.491
  P      -26.138    -214.124    -413.350
  C      -24.353    -215.972    -413.003
  O      -25.007    -215.113    -413.911
  O      -25.766    -213.236    -412.209
  O      -26.435    -213.205    -414.638
  H      -25.969    -212.352    -414.518
  H      -23.607    -216.556    -413.554
  H      -25.066    -216.657    -412.543
  H      -23.840    -215.392    -412.231
  H      -27.620    -219.973    -407.135
  H      -25.895    -219.695    -407.148
  H      -26.640    -220.619    -408.430

 3  4  5  6  7  8  9  10  11  12  13  23  28  29  30  31  32 0
 6-311+G(2d,p)
 ****
 33  34 0
 6-311+G(2d,p)
 ****
 1  2  14  15  16  17  18  19  20  21  22  24  25  26  27 0
 3-21G
 ****
 35  36  37  38  39  40  41  42  43  44  45 0
 3-21G
 ****


