%nproc=1
%NoSave
%Mem=1900MB
#P OB98/GEN NMR

erre ene a

0 1
  C      -65.572    -213.195      33.910
  O      -65.879    -214.350      33.129
  P      -67.128    -214.486      32.144
  C      -69.663    -215.150      32.381
  O      -68.421    -214.857      33.010
  C      -70.611    -215.881      33.346
  O      -69.986    -217.145      33.741
  C      -70.876    -215.086      34.630
  O      -72.238    -215.125      35.052
  C      -69.836    -215.639      35.592
  O      -70.143    -215.393      36.958
  C      -69.759    -217.105      35.169
  N      -66.288    -218.080      38.787
  C      -67.397    -217.260      38.835
  N      -67.604    -216.588      39.992
  N      -68.216    -217.087      37.835
  C      -67.853    -217.748      36.714
  C      -66.770    -218.584      36.539
  C      -65.893    -218.805      37.668
  O      -64.913    -219.541      37.686
  N      -66.728    -219.089      35.260
  C      -67.771    -218.546      34.659
  N      -68.491    -217.727      35.505
  O      -66.898    -215.284      30.904
  O      -67.424    -212.964      31.695
  H      -69.463    -215.842      37.501
  H      -67.775    -213.013      30.782
  H      -65.702    -218.193      39.598
  H      -68.061    -218.715      33.634
  H      -70.529    -217.712      35.654
  H      -68.887    -215.128      35.381
  H      -66.944    -216.578      40.759
  H      -70.687    -214.017      34.471
  H      -68.280    -215.826      39.948
  H      -71.541    -216.115      32.814
  H      -69.426    -215.795      31.529
  H      -70.121    -214.241      31.994
  P      -73.259    -213.911      35.244
  C      -73.806    -212.135      37.006
  O      -73.051    -213.290      36.704
  O      -74.703    -214.599      35.345
  O      -73.241    -212.903      34.131
  H      -75.269    -214.289      34.606
  H      -73.388    -211.662      37.906
  H      -74.841    -212.412      37.208
  H      -73.771    -211.414      36.183
  H      -64.683    -213.375      34.478
  H      -66.384    -212.988      34.575
  H      -65.418    -212.357      33.262

 3  4  5  6  7  8  9  10  11  12  23  26  30  31 0
 6-311+G(2d,p)
 ****
 33  35  36  37  38 0
 6-311+G(2d,p)
 ****
 1  2  13  14  15  16  17  18  19  20  21  22  24  25 0
 3-21G
 ****
 27  28  29  32  34  39  40  41  42  43  44  45  46  47  48  49 0
 3-21G
 ****


