%nproc=1
%NoSave
%Mem=1900MB
#P OB98/GEN NMR

erre ene a

0 1
  C       11.873     -92.332     -59.852
  O       12.881     -93.238     -60.256
  H       12.160     -91.324     -60.163
  H       11.766     -92.347     -58.763
  H       10.921     -92.590     -60.325
  P       12.670     -94.772     -59.832
  C       14.234     -94.789     -57.763
  O       12.898     -94.836     -58.242
  C       14.364     -95.575     -56.461
  O       13.702     -94.885     -55.379
  C       13.771     -96.981     -56.514
  O       14.691     -97.899     -57.079
  C       13.506     -97.245     -55.038
  O       14.718     -97.642     -54.359
  C       13.032     -95.870     -54.544
  N        8.675     -96.691     -52.129
  C        9.953     -97.110     -51.826
  N       10.094     -97.890     -50.728
  N       11.008     -96.807     -52.538
  C       10.711     -96.072     -53.636
  C        9.486     -95.598     -54.046
  C        8.339     -95.896     -53.217
  O        7.194     -95.483     -53.387
  N        9.598     -94.870     -55.207
  C       10.878     -94.938     -55.512
  N       11.596     -95.660     -54.593
  O       13.968     -95.505     -60.419
  O       11.418     -95.409     -60.335
  H       14.537     -97.713     -53.406
  H       13.709     -96.384     -60.753
  H        7.908     -96.930     -51.527
  H       11.339     -94.474     -56.379
  H       13.340     -95.679     -53.510
  H       12.792     -98.059     -54.896
  H        9.315     -98.388     -50.325
  H       12.817     -96.985     -57.059
  H       11.021     -98.257     -50.552
  H       15.430     -95.621     -56.208
  H       14.510     -93.744     -57.585
  H       14.901     -95.213     -58.519
  P       14.125     -99.026     -58.071
  C       14.003    -100.674     -56.068
  O       13.335    -100.109     -57.188
  O       15.450     -99.800     -58.524
  O       13.382     -98.499     -59.255
  H       15.683     -99.556     -59.437
  H       13.355    -101.373     -55.582
  H       14.268     -99.897     -55.382
  H       14.888    -101.177     -56.397

 6  7  8  9  10  11  12  13  14  15  26  29  33  34 0
 6-311+G(2d,p)
 ****
 36  38  39  40  41 0
 6-311+G(2d,p)
 ****
 1  2  3  4  5  16  17  18  19  20  21  22  23  24  25 0
 3-21G
 ****
 27  28  30  31  32  35  37  42  43  44  45  46  47 0
 3-21G
 ****
 48  49 0
 3-21G
 ****


