%nproc=1
%NoSave
%Mem=1900MB
#P OB98/GEN NMR

erre ene a

0 1
  C     -304.148     491.974    -544.694
  O     -305.322     492.500    -545.312
  P     -305.336     493.703    -546.358
  C     -307.749     492.864    -546.959
  O     -306.852     493.956    -546.808
  C     -309.216     493.242    -546.695
  O     -309.379     493.595    -545.297
  C     -309.605     494.486    -547.500
  O     -310.010     494.357    -548.854
  C     -310.614     495.218    -546.620
  O     -311.963     494.873    -546.936
  C     -310.256     494.738    -545.208
  N     -310.441     499.590    -543.584
  C     -311.246     498.943    -544.506
  N     -312.195     499.696    -545.106
  N     -311.125     497.682    -544.815
  C     -310.083     497.070    -544.206
  C     -309.201     497.607    -543.292
  C     -309.384     498.993    -542.906
  O     -308.706     499.606    -542.092
  N     -308.258     496.691    -542.901
  C     -308.548     495.609    -543.595
  N     -309.657     495.784    -544.402
  O     -304.314     493.628    -547.444
  O     -304.988     494.992    -545.450
  H     -312.551     495.414    -546.378
  H     -304.487     495.609    -546.021
  H     -310.595     500.558    -543.366
  H     -308.004     494.672    -543.551
  H     -311.150     494.401    -544.669
  H     -310.524     496.302    -546.757
  H     -312.262     500.696    -545.000
  H     -308.721     495.133    -547.532
  H     -312.641     499.288    -545.931
  H     -309.878     492.388    -546.866
  H     -307.423     492.087    -546.264
  H     -307.658     492.443    -547.964
  P     -309.096     494.620    -550.140
  C     -309.495     492.430    -551.417
  O     -309.740     493.826    -551.374
  O     -307.763     493.775    -549.850
  O     -308.773     496.051    -550.405
  H     -307.042     494.066    -550.438
  H     -309.705     492.063    -552.427
  H     -310.146     491.918    -550.711
  H     -308.446     492.213    -551.177
  H     -304.419     491.174    -544.037
  H     -303.663     492.746    -544.135
  H     -303.482     491.607    -545.447

 3  4  5  6  7  8  9  10  11  12  23  26  30  31 0
 6-311+G(2d,p)
 ****
 33  35  36  37  38 0
 6-311+G(2d,p)
 ****
 1  2  13  14  15  16  17  18  19  20  21  22  24  25 0
 3-21G
 ****
 27  28  29  32  34  39  40  41  42  43  44  45  46  47  48  49 0
 3-21G
 ****


