%nproc=1
%NoSave
%Mem=1900MB
#P OB98/GEN NMR

erre ene a

0 1
  C     -238.663      77.372     618.706
  O     -238.863      76.056     618.176
  P     -240.205      75.221     618.456
  C     -241.187      73.528     620.114
  O     -240.042      74.278     619.754
  C     -240.921      72.551     621.281
  O     -240.069      71.455     620.866
  C     -240.258      73.191     622.512
  O     -240.733      72.461     623.652
  C     -238.783      72.875     622.278
  O     -237.986      72.980     623.449
  C     -238.893      71.469     621.697
  N     -234.057      69.767     621.964
  C     -235.028      69.856     622.900
  N     -236.292      70.279     622.735
  C     -236.551      70.600     621.452
  C     -235.650      70.563     620.393
  C     -234.350      70.125     620.689
  N     -233.333      70.074     619.751
  N     -236.258      70.998     619.218
  C     -237.499      71.312     619.580
  N     -237.723      71.090     620.922
  O     -240.748      74.495     617.250
  O     -241.267      76.333     618.931
  H     -237.052      72.982     623.170
  H     -242.117      76.181     618.464
  H     -234.752      69.548     623.912
  H     -238.240      71.721     618.923
  H     -239.023      70.717     622.489
  H     -238.381      73.590     621.538
  H     -240.460      74.264     622.619
  H     -241.894      72.112     621.562
  H     -241.525      72.948     619.243
  H     -232.414      69.842     620.075
  H     -233.501      70.458     618.832
  H     -242.006      74.217     620.388
  P     -241.567      73.171     624.815
  C     -241.088      74.932     626.628
  O     -240.550      74.178     625.550
  O     -242.292      72.243     625.747
  O     -242.581      74.158     624.053
  H     -243.315      74.399     624.648
  H     -241.707      75.743     626.239
  H     -240.253      75.359     627.206
  H     -241.676      74.287     627.276
  H     -237.707      77.739     618.397
  H     -238.703      77.336     619.775
  H     -239.430      78.023     618.342

 3  4  5  6  7  8  9  10  11  12  22  25  29  30  31  32 0
 6-311+G(2d,p)
 ****
 33  36  37 0
 6-311+G(2d,p)
 ****
 1  2  13  14  15  16  17  18  19  20  21  23  24  26 0
 3-21G
 ****
 27  28  34  35  38  39  40  41  42  43  44  45  46  47  48 0
 3-21G
 ****


