%nproc=1
%NoSave
%Mem=1900MB
#P OB98/GEN NMR

erre ene a

0 1
  C      632.030    -632.921     -79.887
  O      633.125    -633.686     -79.416
  H      632.358    -632.229     -80.668
  H      631.286    -633.603     -80.309
  H      631.578    -632.369     -79.056
  P      634.378    -632.864     -78.855
  C      636.107    -631.262     -79.945
  O      635.186    -632.324     -80.138
  C      636.471    -630.636     -81.283
  O      635.341    -629.919     -81.826
  C      637.600    -629.607     -81.219
  O      638.881    -630.232     -81.157
  C      637.399    -628.882     -82.541
  O      637.977    -629.651     -83.612
  C      635.867    -628.865     -82.675
  N      633.294    -624.734     -84.318
  C      633.751    -625.834     -84.971
  N      634.439    -626.883     -84.472
  C      634.626    -626.742     -83.154
  C      634.216    -625.687     -82.355
  C      633.524    -624.640     -82.986
  N      633.072    -623.526     -82.320
  N      634.573    -625.899     -81.039
  C      635.189    -627.065     -81.039
  N      635.255    -627.608     -82.294
  O      635.344    -634.000     -78.267
  O      634.058    -631.830     -77.822
  H      638.943    -629.675     -83.448
  H      635.788    -633.654     -77.470
  H      633.541    -625.862     -86.034
  H      635.601    -627.551     -80.158
  H      635.553    -629.101     -83.703
  H      637.857    -627.892     -82.562
  H      637.455    -628.903     -80.390
  H      636.727    -631.445     -81.983
  H      637.013    -631.651     -79.470
  H      632.418    -622.916     -82.780
  H      633.243    -623.470     -81.320
  H      635.653    -630.515     -79.284
  P      640.034    -629.459     -80.353
  C      640.933    -627.106     -80.987
  O      640.698    -628.445     -81.407
  O      641.158    -630.581     -80.168
  O      639.619    -628.874     -79.045
  H      641.710    -630.382     -79.391
  H      641.376    -626.553     -81.789
  H      641.595    -627.107     -80.146
  H      640.005    -626.651     -80.710

 6  7  8  9  10  11  12  13  14  15  25  28  32  33  34  35 0
 6-311+G(2d,p)
 ****
 36  39  40 0
 6-311+G(2d,p)
 ****
 1  2  3  4  5  16  17  18  19  20  21  22  23  24 0
 3-21G
 ****
 26  27  29  30  31  37  38  41  42  43  44  45  46  47  48 0
 3-21G
 ****


