%nproc=1
%NoSave
%Mem=1900MB
#P OB98/GEN NMR

erre ene a

0 1
  C     1546.107    -247.941     236.712
  O     1545.196    -247.811     235.636
  H     1547.115    -247.725     236.343
  H     1546.081    -248.956     237.104
  H     1545.855    -247.216     237.497
  P     1543.650    -248.120     235.965
  C     1542.516    -250.068     237.228
  O     1543.665    -249.620     236.549
  C     1542.699    -251.499     237.733
  O     1543.747    -251.547     238.725
  C     1541.480    -252.121     238.360
  O     1540.612    -252.648     237.375
  C     1542.100    -253.237     239.209
  O     1542.385    -254.371     238.354
  C     1543.425    -252.598     239.673
  N     1542.883    -253.565     244.696
  C     1542.683    -254.344     243.606
  N     1542.786    -254.012     242.291
  C     1543.161    -252.711     242.168
  C     1543.409    -251.810     243.187
  C     1543.262    -252.271     244.496
  N     1543.455    -251.476     245.612
  N     1543.729    -250.563     242.678
  C     1543.767    -250.740     241.374
  N     1543.393    -252.017     241.008
  O     1542.689    -247.848     234.858
  O     1543.440    -247.243     237.286
  H     1541.508    -254.702     238.044
  H     1544.214    -247.312     237.873
  H     1542.420    -255.376     243.801
  H     1544.088    -249.998     240.645
  H     1544.254    -253.312     239.657
  H     1541.442    -253.581     240.001
  H     1540.954    -251.416     239.047
  H     1543.051    -252.106     236.880
  H     1541.631    -250.019     236.584
  H     1543.154    -251.850     246.496
  H     1543.589    -250.474     245.457
  H     1542.350    -249.393     238.095
  P     1539.027    -252.846     237.654
  C     1537.761    -253.888     239.630
  O     1538.977    -253.883     238.894
  O     1538.242    -253.219     236.454
  O     1538.575    -251.454     238.321
  H     1537.593    -251.406     238.288
  H     1537.827    -254.602     240.424
  H     1536.952    -254.151     238.981
  H     1537.588    -252.915     240.040

 6  7  8  9  10  11  12  13  14  15  25  28  32  33  34  35 0
 6-311+G(2d,p)
 ****
 36  39  40 0
 6-311+G(2d,p)
 ****
 1  2  3  4  5  16  17  18  19  20  21  22  23  24 0
 3-21G
 ****
 26  27  29  30  31  37  38  41  42  43  44  45  46  47 0
 3-21G
 ****
 48 0
 3-21G
 ****


