%nproc=1
%NoSave
%Mem=1900MB
#P OB98/GEN NMR

erre ene a

0 1
  C      938.914    -896.268     -84.504
  O      937.737    -896.978     -84.849
  H      938.670    -895.368     -83.935
  H      939.541    -896.928     -83.886
  H      939.476    -896.008     -85.397
  P      936.677    -896.168     -85.757
  C      937.144    -897.428     -87.983
  O      937.245    -896.198     -87.263
  C      937.592    -897.238     -89.420
  O      936.508    -896.558     -90.137
  C      938.843    -896.368     -89.589
  O      939.798    -897.038     -90.443
  C      938.382    -895.098     -90.292
  O      939.333    -894.578     -91.186
  C      937.107    -895.588     -91.010
  N      935.365    -892.488     -94.656
  C      935.951    -893.698     -94.723
  N      936.328    -894.508     -93.711
  C      935.965    -893.988     -92.518
  C      935.319    -892.778     -92.291
  C      935.025    -892.008     -93.435
  N      934.471    -890.748     -93.354
  N      935.110    -892.568     -90.934
  C      935.685    -893.628     -90.355
  N      936.201    -894.498     -91.269
  O      936.894    -894.648     -85.295
  O      935.264    -896.598     -85.577
  H      939.417    -895.198     -91.942
  H      936.050    -894.308     -84.927
  H      936.181    -894.048     -95.731
  H      935.759    -893.778     -89.288
  H      937.338    -896.088     -91.961
  H      938.154    -894.368     -89.520
  H      939.323    -896.128     -88.613
  H      937.717    -898.208     -89.874
  H      936.093    -897.768     -87.967
  H      934.395    -890.198     -94.214
  H      934.327    -890.328     -92.448
  H      937.774    -898.168     -87.484
  P      941.305    -897.098     -89.914
  C      940.675    -899.398     -88.851
  O      941.373    -898.158     -88.680
  O      941.535    -895.698     -89.182
  O      942.331    -897.318     -90.988
  H      942.272    -895.218     -89.584
  H      940.798    -900.000     -87.975
  H      941.072    -899.916     -89.699
  H      939.635    -899.203     -89.007

 6  7  8  9  10  11  12  13  14  15  25  28  32  33  34  35 0
 6-311+G(2d,p)
 ****
 36  39  40 0
 6-311+G(2d,p)
 ****
 1  2  3  4  5  16  17  18  19  20  21  22  23  24 0
 3-21G
 ****
 26  27  29  30  31  37  38  41  42  43  44  45  46  47  48 0
 3-21G
 ****


