%nproc=1
%NoSave
%Mem=1900MB
#P OB98/GEN NMR

erre ene a

0 1
  C      112.006       5.201      84.272
  O      112.529       4.969      85.560
  H      112.477       6.097      83.860
  H      110.928       5.370      84.339
  H      112.205       4.361      83.601
  P      112.374       3.512      86.202
  C      110.913       4.218      88.209
  O      110.984       3.465      87.006
  C      109.544       4.091      88.876
  O      108.516       4.530      87.962
  C      109.208       2.647      89.258
  O      109.686       2.249      90.531
  C      107.682       2.659      89.224
  O      107.135       3.055      90.493
  C      107.359       3.703      88.151
  N      103.538       2.528      84.964
  C      103.470       2.991      86.265
  N      102.230       3.118      86.784
  N      104.525       3.281      86.981
  C      105.695       3.008      86.361
  C      105.886       2.530      85.085
  C      104.715       2.282      84.272
  O      104.721       1.888      83.111
  N      107.219       2.338      84.812
  C      107.821       2.617      85.951
  N      106.947       3.104      86.894
  O      113.457       3.511      87.387
  O      112.615       2.366      85.267
  H      107.526       3.917      90.734
  H      113.801       2.609      87.513
  H      102.692       2.350      84.453
  H      108.886       2.528      86.133
  H      106.544       4.365      88.470
  H      107.290       1.662      89.010
  H      101.392       2.829      86.309
  H      109.560       1.952      88.490
  H      102.143       3.271      87.791
  H      109.503       4.756      89.747
  H      111.101       5.258      87.937
  H      111.705       3.911      88.898
  P      109.694       0.710      90.961
  C      108.525       1.084      93.282
  O      108.517       0.474      92.010
  O      111.015       0.592      91.855
  O      109.691      -0.271      89.835
  H      111.753       0.226      91.333
  H      107.648       0.794      93.822
  H      108.537       2.148      93.167
  H      109.395       0.773      93.821

 6  7  8  9  10  11  12  13  14  15  26  29  33  34 0
 6-311+G(2d,p)
 ****
 36  38  39  40  41 0
 6-311+G(2d,p)
 ****
 1  2  3  4  5  16  17  18  19  20  21  22  23  24  25 0
 3-21G
 ****
 27  28  30  31  32  35  37  42  43  44  45  46  47 0
 3-21G
 ****
 48  49 0
 3-21G
 ****


