%nproc=1
%NoSave
%Mem=1900MB
#P OB98/GEN NMR

erre ene a

0 1
  C       19.665    -633.703    -267.468
  O       18.513    -633.940    -266.673
  P       18.715    -634.045    -265.082
  C       18.172    -636.618    -265.001
  O       17.826    -635.296    -264.610
  C       17.465    -637.638    -264.106
  O       17.908    -637.492    -262.730
  C       15.950    -637.478    -264.061
  O       15.319    -637.996    -265.219
  C       15.609    -638.232    -262.767
  O       15.579    -639.650    -263.006
  C       16.796    -637.865    -261.865
  N       16.505    -636.798    -260.904
  C       15.747    -637.167    -259.797
  O       15.343    -638.325    -259.618
  N       15.434    -636.162    -258.923
  C       15.755    -634.842    -259.068
  O       15.426    -633.976    -258.268
  C       16.526    -634.507    -260.285
  C       16.858    -635.485    -261.139
  O       17.895    -632.763    -264.596
  O       20.153    -634.069    -264.665
  H       17.186    -632.517    -265.227
  H       15.306    -640.073    -262.157
  H       14.922    -636.411    -258.096
  H       16.787    -633.465    -260.435
  H       17.420    -635.250    -262.033
  H       17.142    -638.741    -261.315
  H       14.629    -637.947    -262.361
  H       15.671    -636.425    -263.941
  H       17.732    -638.647    -264.439
  H       19.247    -636.752    -264.895
  H       17.897    -636.779    -266.051
  P       15.049    -636.972    -266.434
  C       12.509    -637.443    -265.969
  O       13.540    -637.256    -266.920
  O       15.957    -637.607    -267.591
  O       15.358    -635.557    -266.081
  H       15.899    -638.558    -267.628
  H       11.550    -637.260    -266.470
  H       12.607    -636.765    -265.132
  H       12.533    -638.482    -265.608
  H       19.383    -633.657    -268.499
  H       20.367    -634.498    -267.325
  H       20.113    -632.775    -267.179

 3  4  5  6  7  8  9  10  11  12  13  24  28  29  30  31  32 0
 6-311+G(2d,p)
 ****
 33  34 0
 6-311+G(2d,p)
 ****
 1  2  14  15  16  17  18  19  20  21  22  23  25  26  27 0
 3-21G
 ****
 35  36  37  38  39  40  41  42  43  44  45 0
 3-21G
 ****


