%nproc=1
%NoSave
%Mem=1900MB
#P OB98/GEN NMR

erre ene a

0 1
  C      157.906    -145.802    -161.998
  O      159.278    -146.114    -162.032
  P      159.994    -147.082    -160.987
  C      161.264    -145.089    -159.862
  O      161.338    -146.372    -160.476
  C      162.410    -144.183    -160.344
  O      163.670    -144.847    -160.059
  C      162.356    -143.964    -161.868
  O      162.637    -142.630    -162.268
  C      163.266    -145.060    -162.402
  O      163.743    -144.811    -163.717
  C      164.327    -145.139    -161.307
  N      168.372    -147.942    -162.596
  C      168.183    -146.579    -162.719
  N      169.114    -145.914    -163.439
  N      167.159    -145.946    -162.210
  C      166.254    -146.758    -161.620
  C      166.331    -148.122    -161.440
  C      167.485    -148.806    -161.972
  O      167.634    -150.028    -161.988
  N      165.198    -148.626    -160.852
  C      164.415    -147.573    -160.715
  N      165.004    -146.423    -161.195
  O      160.054    -148.532    -161.341
  O      159.028    -146.938    -159.696
  H      164.151    -143.921    -163.715
  H      159.021    -147.805    -159.244
  H      169.142    -148.388    -163.078
  H      163.414    -147.587    -160.303
  H      165.116    -144.401    -161.460
  H      162.677    -145.984    -162.445
  H      169.833    -146.397    -163.961
  H      161.340    -144.130    -162.238
  H      168.874    -144.974    -163.747
  H      162.391    -143.246    -159.779
  H      161.345    -145.259    -158.785
  H      160.295    -144.622    -160.060
  P      161.630    -141.516    -162.814
  C      162.530    -141.120    -165.183
  O      162.407    -140.600    -163.876
  O      161.413    -140.520    -161.578
  O      160.320    -142.039    -163.288
  H      160.477    -140.238    -161.549
  H      163.296    -140.548    -165.720
  H      161.580    -141.014    -165.713
  H      162.822    -142.176    -165.161
  H      157.672    -145.135    -162.802
  H      157.670    -145.333    -161.066
  H      157.333    -146.700    -162.101

 3  4  5  6  7  8  9  10  11  12  23  26  30  31 0
 6-311+G(2d,p)
 ****
 33  35  36  37  38 0
 6-311+G(2d,p)
 ****
 1  2  13  14  15  16  17  18  19  20  21  22  24  25 0
 3-21G
 ****
 27  28  29  32  34  39  40  41  42  43  44  45  46  47  48  49 0
 3-21G
 ****


