%nproc=1
%NoSave
%Mem=1900MB
#P OB98/GEN NMR

erre ene a

0 1
  C       -5.765     -16.479      -8.849
  O       -6.025     -16.415     -10.238
  P       -5.360     -15.277     -11.143
  C       -2.972     -14.530     -11.690
  O       -3.806     -15.190     -10.746
  C       -1.905     -13.687     -10.995
  O       -2.530     -12.504     -10.429
  C       -1.165     -14.403      -9.855
  O        0.177     -13.906      -9.860
  C       -1.890     -13.899      -8.618
  O       -1.119     -14.036      -7.431
  C       -2.167     -12.458      -9.033
  N       -3.373     -10.094      -4.666
  C       -2.215     -10.626      -5.109
  N       -1.981     -11.262      -6.274
  C       -3.097     -11.321      -7.017
  C       -4.357     -10.852      -6.685
  C       -4.475     -10.193      -5.448
  N       -5.640      -9.615      -4.995
  N       -5.262     -11.154      -7.685
  C       -4.560     -11.790      -8.599
  N       -3.235     -11.857      -8.267
  O       -6.074     -13.967     -11.147
  O       -5.324     -15.919     -12.608
  H       -1.600     -13.606      -6.699
  H       -6.008     -15.504     -13.169
  H       -1.363     -10.522      -4.443
  H       -4.954     -12.219      -9.509
  H       -1.280     -11.822      -8.934
  H       -2.821     -14.461      -8.484
  H       -1.175     -15.493      -9.934
  H       -1.193     -13.343     -11.755
  H       -3.604     -13.879     -12.302
  H       -5.579      -9.056      -4.159
  H       -6.392      -9.442      -5.659
  H       -2.500     -15.269     -12.348
  P        1.367     -14.817      -9.293
  C        2.567     -16.858     -10.263
  O        1.330     -16.184     -10.124
  O        1.404     -14.970      -7.809
  O        2.687     -14.093      -9.846
  H        3.463     -14.397      -9.336
  H        3.145     -16.394     -11.066
  H        2.376     -17.903     -10.520
  H        3.144     -16.820      -9.335
  H       -6.298     -17.304      -8.424
  H       -6.085     -15.570      -8.384
  H       -4.716     -16.612      -8.688

 3  4  5  6  7  8  9  10  11  12  22  25  29  30  31  32 0
 6-311+G(2d,p)
 ****
 33  36  37 0
 6-311+G(2d,p)
 ****
 1  2  13  14  15  16  17  18  19  20  21  23  24  26 0
 3-21G
 ****
 27  28  34  35  38  39  40  41  42  43  44  45  46  47  48 0
 3-21G
 ****


