%nproc=1
%NoSave
%Mem=1900MB
#P OB98/GEN NMR

erre ene a

0 1
  C      -20.622     -71.212      64.466
  O      -20.688     -72.558      64.038
  H      -21.554     -70.929      64.963
  H      -19.798     -71.111      65.177
  H      -20.437     -70.552      63.613
  P      -21.823     -72.913      62.959
  C      -23.346     -74.098      64.695
  O      -23.198     -73.024      63.779
  C      -24.606     -73.904      65.533
  O      -24.463     -72.752      66.389
  C      -25.877     -73.661      64.725
  O      -26.418     -74.871      64.217
  C      -26.777     -73.054      65.792
  O      -27.314     -74.097      66.627
  C      -25.787     -72.195      66.594
  N      -28.498     -67.857      66.456
  C      -28.759     -69.066      66.996
  N      -27.979     -70.168      67.011
  C      -26.807     -69.924      66.400
  C      -26.387     -68.738      65.823
  C      -27.294     -67.665      65.858
  N      -27.042     -66.450      65.241
  N      -25.125     -68.878      65.280
  C      -24.799     -70.132      65.510
  N      -25.779     -70.802      66.190
  O      -21.484     -74.432      62.574
  O      -21.854     -72.030      61.757
  H      -28.074     -73.712      67.103
  H      -20.961     -74.444      61.751
  H      -29.726     -69.167      67.478
  H      -23.873     -70.597      65.200
  H      -25.989     -72.229      67.671
  H      -27.626     -72.504      65.375
  H      -25.715     -72.923      63.931
  H      -24.717     -74.784      66.180
  H      -22.474     -74.135      65.357
  H      -27.882     -65.970      64.932
  H      -26.260     -66.464      64.596
  H      -23.404     -75.034      64.131
  P      -27.080     -74.834      62.755
  C      -29.491     -74.950      63.687
  O      -28.546     -74.201      62.935
  O      -27.367     -76.381      62.457
  O      -26.237     -74.226      61.689
  H      -26.934     -76.641      61.622
  H      -30.418     -74.417      63.728
  H      -29.120     -75.097      64.680
  H      -29.646     -75.900      63.220

 6  7  8  9  10  11  12  13  14  15  25  28  32  33  34  35 0
 6-311+G(2d,p)
 ****
 36  39  40 0
 6-311+G(2d,p)
 ****
 1  2  3  4  5  16  17  18  19  20  21  22  23  24 0
 3-21G
 ****
 26  27  29  30  31  37  38  41  42  43  44  45  46  47  48 0
 3-21G
 ****


