%nproc=1
%NoSave
%Mem=1900MB
#P OB98/GEN NMR

erre ene a

0 1
  C      -53.240    -426.909      -8.474
  O      -51.877    -427.035      -8.915
  P      -51.313    -426.056     -10.046
  C      -48.982    -425.745      -8.888
  O      -50.162    -425.132      -9.389
  C      -47.758    -424.845      -9.112
  O      -47.453    -424.780     -10.526
  C      -47.973    -423.404      -8.681
  O      -47.865    -423.258      -7.279
  C      -46.853    -422.689      -9.449
  O      -45.592    -422.822      -8.753
  C      -46.816    -423.498     -10.765
  N      -47.432    -422.766     -11.877
  C      -46.585    -422.065     -12.724
  O      -45.369    -422.029     -12.550
  N      -47.190    -421.431     -13.780
  C      -48.529    -421.345     -14.016
  O      -49.001    -420.747     -14.959
  C      -49.393    -422.035     -13.028
  C      -48.829    -422.690     -12.024
  O      -52.514    -424.998     -10.195
  O      -50.978    -426.676     -11.361
  H      -44.934    -422.293      -9.236
  H      -52.497    -424.621     -11.112
  H      -46.568    -420.944     -14.416
  H      -50.459    -421.971     -13.148
  H      -49.441    -423.188     -11.285
  H      -45.783    -423.732     -11.054
  H      -47.063    -421.633      -9.565
  H      -48.937    -423.038      -9.032
  H      -46.912    -425.304      -8.615
  H      -48.823    -426.728      -9.386
  H      -49.104    -425.954      -7.814
  P      -48.761    -422.120      -6.597
  C      -50.885    -423.634      -6.526
  O      -50.279    -422.450      -6.980
  O      -48.363    -420.846      -7.484
  O      -48.473    -421.966      -5.123
  H      -48.175    -421.088      -8.424
  H      -50.546    -423.916      -5.538
  H      -50.690    -424.452      -7.234
  H      -51.962    -423.460      -6.497
  H      -53.440    -427.641      -7.719
  H      -53.899    -427.063      -9.303
  H      -53.396    -425.930      -8.072

 3  4  5  6  7  8  9  10  11  12  13  23  28  29  30  31  32 0
 6-311+G(2d,p)
 ****
 33  34 0
 6-311+G(2d,p)
 ****
 1  2  14  15  16  17  18  19  20  21  22  24  25  26 0
 3-21G
 ****
 27  35  36  37  38  39  40  41  42  43  44  45 0
 3-21G
 ****


