%nproc=1
%NoSave
%Mem=1900MB
#P OB98/GEN NMR

erre ene a

0 1
  C      186.531    -307.792     230.345
  O      187.413    -308.728     229.717
  P      186.973    -309.313     228.289
  C      187.890    -311.114     226.648
  O      187.855    -310.614     227.981
  C      189.116    -312.012     226.455
  O      190.336    -311.290     226.721
  C      189.143    -313.203     227.396
  O      188.264    -314.213     226.948
  C      190.616    -313.600     227.362
  O      190.883    -314.557     226.321
  C      191.337    -312.264     227.077
  N      192.145    -311.810     228.196
  C      193.355    -311.196     227.865
  O      193.696    -311.085     226.686
  N      194.162    -310.747     228.883
  C      193.798    -310.922     230.120
  N      194.643    -310.462     231.081
  C      192.541    -311.587     230.510
  C      191.771    -312.004     229.507
  O      187.541    -308.226     227.260
  O      185.497    -309.500     228.142
  H      190.711    -314.090     225.484
  H      186.952    -308.161     226.485
  H      192.288    -311.721     231.550
  H      190.827    -312.507     229.701
  H      191.994    -312.364     226.206
  H      190.925    -314.068     228.305
  H      188.873    -312.883     228.412
  H      189.138    -312.359     225.409
  H      195.496    -310.010     230.780
  H      187.915    -310.287     225.933
  H      194.464    -310.549     232.073
  H      186.964    -311.671     226.456
  P      186.995    -314.557     227.851
  C      184.601    -315.146     227.130
  O      185.981    -315.337     226.882
  O      186.282    -313.124     227.995
  O      187.248    -315.185     229.185
  H      185.532    -313.183     228.613
  H      184.034    -315.552     226.279
  H      184.372    -314.083     227.228
  H      184.307    -315.681     228.035
  H      186.945    -307.486     231.283
  H      185.579    -308.253     230.508
  H      186.410    -306.937     229.713

 3  4  5  6  7  8  9  10  11  12  13  21  23  27  28  29  30  32 0
 6-311+G(2d,p)
 ****
 34  35 0
 6-311+G(2d,p)
 ****
 1  2  14  15  16  17  18  19  20  22  24  25  26 0
 3-21G
 ****
 31  33  36  37  38  39  40  41  42  43  44  45  46 0
 3-21G
 ****


