%nproc=1
%NoSave
%Mem=1900MB
#P OB98/GEN NMR

erre ene a

0 1
  C     -654.302     100.806     194.715
  O     -654.615     100.338     196.015
  P     -655.939     100.915     196.717
  C     -657.646      98.986     196.297
  O     -657.198     100.289     195.946
  C     -659.009      99.081     196.993
  O     -659.907      99.892     196.218
  C     -659.700      97.731     197.145
  O     -659.171      96.991     198.240
  C     -661.154      98.156     197.348
  O     -661.400      98.505     198.718
  C     -661.246      99.400     196.443
  N     -661.951      99.133     195.186
  C     -663.312      99.367     195.185
  O     -663.926      99.763     196.185
  N     -663.977      99.097     194.015
  C     -663.416      98.574     192.881
  O     -664.073      98.305     191.883
  C     -661.972      98.316     192.947
  C     -661.310      98.593     194.078
  O     -655.959     102.460     196.282
  O     -655.976     100.760     198.196
  H     -661.043      97.775     199.255
  H     -656.310     103.002     197.012
  H     -664.960      99.286     193.985
  H     -661.495      97.898     192.069
  H     -660.249      98.400     194.155
  H     -661.779     100.201     196.964
  H     -661.855      97.358     197.083
  H     -659.623      97.155     196.208
  H     -658.863      99.557     197.968
  H     -656.920      98.525     196.975
  H     -657.713      98.373     195.395
  P     -659.110      95.397     198.076
  C     -656.549      95.497     197.546
  O     -657.844      95.121     197.132
  O     -660.394      95.147     197.150
  O     -659.122      94.680     199.386
  H     -660.553      95.885     196.537
  H     -656.423      95.377     198.620
  H     -656.376      96.553     197.276
  H     -655.824      94.869     197.032
  H     -653.401     100.340     194.375
  H     -654.167     101.867     194.741
  H     -655.102     100.565     194.047

 3  4  5  6  7  8  9  10  11  12  13  23  28  29  30  31  32 0
 6-311+G(2d,p)
 ****
 33  34 0
 6-311+G(2d,p)
 ****
 1  2  14  15  16  17  18  19  20  21  22  24  25  26 0
 3-21G
 ****
 27  35  36  37  38  39  40  41  42  43  44  45 0
 3-21G
 ****


