%nproc=1
%NoSave
%Mem=1900MB
#P OB98/GEN NMR

erre ene a

0 1
  C       21.780    -131.267     197.379
  O       21.624    -131.236     195.953
  P       20.194    -131.220     195.225
  C       19.380    -128.776     195.370
  O       19.959    -129.780     194.548
  C       19.860    -127.372     194.977
  O       21.313    -127.355     194.850
  C       19.276    -126.850     193.650
  O       19.023    -125.453     193.835
  C       20.431    -127.086     192.684
  O       20.337    -126.334     191.489
  C       21.609    -126.709     193.591
  N       22.928    -127.103     193.105
  C       23.519    -126.310     192.116
  O       22.933    -125.344     191.628
  N       24.780    -126.641     191.677
  C       25.391    -127.673     192.170
  N       26.639    -127.940     191.700
  C       24.797    -128.548     193.195
  C       23.578    -128.206     193.615
  O       19.066    -131.652     196.105
  O       20.341    -132.210     193.973
  H       19.495    -132.682     193.833
  H       20.364    -125.389     191.728
  H       25.342    -129.393     193.586
  H       23.083    -128.781     194.391
  H       21.594    -125.628     193.774
  H       20.448    -128.147     192.413
  H       18.344    -127.344     193.357
  H       19.607    -126.687     195.799
  H       27.019    -127.310     190.999
  H       19.670    -128.967     196.409
  H       27.206    -128.710     192.016
  H       18.287    -128.841     195.302
  P       17.565    -124.965     194.299
  C       17.351    -125.393     196.862
  O       17.678    -124.489     195.825
  O       16.783    -126.358     194.445
  O       16.837    -124.066     193.352
  H       15.829    -126.207     194.330
  H       18.111    -125.324     197.644
  H       17.305    -126.427     196.510
  H       16.382    -125.115     197.284
  H       22.822    -131.272     197.624
  H       21.317    -132.149     197.769
  H       21.317    -130.402     197.807

 3  4  5  6  7  8  9  10  11  12  13  24  27  28  29  30  32 0
 6-311+G(2d,p)
 ****
 34  35 0
 6-311+G(2d,p)
 ****
 1  2  14  15  16  17  18  19  20  21  22  23  25  26 0
 3-21G
 ****
 31  33  36  37  38  39  40  41  42  43  44  45  46 0
 3-21G
 ****


