%nproc=1
%NoSave
%Mem=1900MB
#P OB98/GEN NMR

erre ene a

0 1
  C     -551.332     282.053    -223.004
  O     -550.348     281.040    -223.022
  P     -549.803     280.419    -224.400
  C     -551.296     278.329    -224.276
  O     -549.967     278.830    -224.256
  C     -551.462     277.159    -223.308
  O     -550.725     276.007    -223.807
  C     -550.985     277.434    -221.875
  O     -551.850     276.695    -221.011
  C     -549.595     276.827    -221.880
  O     -549.110     276.565    -220.566
  C     -549.817     275.593    -222.761
  N     -548.565     275.066    -223.297
  C     -547.687     274.478    -222.384
  O     -547.952     274.486    -221.178
  N     -546.514     273.941    -222.841
  C     -546.196     274.073    -224.091
  N     -545.021     273.522    -224.498
  C     -547.032     274.800    -225.066
  C     -548.197     275.253    -224.609
  O     -548.446     280.881    -224.806
  O     -550.944     280.792    -225.459
  H     -549.726     275.940    -220.124
  H     -550.872     281.745    -225.720
  H     -546.699     274.937    -226.084
  H     -548.880     275.800    -225.249
  H     -550.318     274.792    -222.193
  H     -548.891     277.514    -222.359
  H     -550.983     278.490    -221.613
  H     -552.529     276.876    -223.297
  H     -544.482     273.017    -223.797
  H     -551.515     277.988    -225.290
  H     -544.720     273.496    -225.456
  H     -552.003     279.134    -224.036
  P     -552.806     277.437    -219.958
  C     -551.742     276.214    -217.976
  O     -552.942     276.474    -218.686
  O     -554.108     277.918    -220.519
  O     -551.921     278.651    -219.407
  H     -552.497     279.297    -218.956
  H     -551.986     275.796    -216.996
  H     -551.164     277.133    -217.830
  H     -551.140     275.490    -218.533
  H     -551.549     282.321    -221.991
  H     -552.222     281.694    -223.477
  H     -550.970     282.911    -223.530

 3  4  5  6  7  8  9  10  11  12  13  23  27  28  29  30  32 0
 6-311+G(2d,p)
 ****
 34  35 0
 6-311+G(2d,p)
 ****
 1  2  14  15  16  17  18  19  20  21  22  24  25  26 0
 3-21G
 ****
 31  33  36  37  38  39  40  41  42  43  44  45  46 0
 3-21G
 ****


