%nproc=1
%NoSave
%Mem=1900MB
#P OB98/GEN NMR

erre ene a

0 1
  C      418.069    -337.885     187.669
  O      417.540    -336.789     188.392
  H      418.824    -337.512     186.977
  H      417.274    -338.375     187.098
  H      418.532    -338.602     188.354
  P      416.414    -337.130     189.486
  C      418.155    -336.997     191.423
  O      417.184    -337.775     190.733
  C      418.914    -337.864     192.436
  O      419.427    -339.042     191.739
  C      420.129    -337.161     193.070
  O      420.328    -337.720     194.380
  C      421.258    -337.601     192.153
  O      422.516    -337.341     192.732
  C      420.859    -339.064     191.947
  N      424.679    -342.166     190.526
  C      424.233    -341.780     191.751
  N      423.205    -340.965     192.048
  C      422.593    -340.539     190.931
  C      422.917    -340.852     189.617
  C      424.022    -341.711     189.442
  N      424.479    -342.096     188.196
  N      422.055    -340.234     188.733
  C      421.221    -339.551     189.500
  N      421.510    -339.698     190.832
  O      415.636    -338.370     188.834
  O      415.487    -336.008     189.827
  H      423.242    -337.513     192.082
  H      414.848    -338.055     188.357
  H      424.786    -342.190     192.592
  H      420.403    -338.931     189.145
  H      421.066    -339.675     192.843
  H      421.227    -337.054     191.208
  H      420.007    -336.081     193.154
  H      418.210    -338.226     193.197
  H      417.640    -336.185     191.948
  H      418.865    -336.571     190.703
  H      425.287    -342.696     188.148
  H      424.016    -341.748     187.369
  P      419.955    -336.835     195.672
  C      417.761    -338.127     196.277
  O      418.369    -336.895     195.908
  O      420.150    -335.337     195.115
  O      420.809    -337.064     196.884
  H      420.387    -334.743     195.854
  H      416.707    -337.984     196.392
  H      418.178    -338.467     197.202
  H      417.941    -338.856     195.515

 6  7  8  9  10  11  12  13  14  15  25  28  32  33  34  35 0
 6-311+G(2d,p)
 ****
 36  37  40 0
 6-311+G(2d,p)
 ****
 1  2  3  4  5  16  17  18  19  20  21  22  23  24 0
 3-21G
 ****
 26  27  29  30  31  38  39 41  42  43  44  45  46  47  48 0
 3-21G
 ****


