%nproc=1
%NoSave
%Mem=1900MB
#P OB98/GEN NMR

erre ene a

0 1
  C     -617.717     288.126     114.041
  O     -618.483     287.745     115.189
  P     -619.915     288.443     115.389
  C     -621.325     286.277     115.637
  O     -621.055     287.436     114.868
  C     -622.817     285.914     115.594
  O     -623.613     286.902     116.305
  C     -623.388     285.830     114.173
  O     -624.445     284.865     114.168
  C     -623.987     287.206     113.974
  O     -624.934     287.225     112.907
  C     -624.554     287.462     115.371
  N     -627.725     291.323     114.694
  C     -627.805     290.019     114.253
  N     -628.914     289.685     113.559
  N     -626.884     289.117     114.473
  C     -625.852     289.589     115.214
  C     -625.650     290.860     115.701
  C     -626.669     291.851     115.427
  O     -626.641     293.026     115.779
  N     -624.464     290.953     116.385
  C     -623.947     289.744     116.303
  N     -624.765     288.872     115.636
  O     -619.904     289.601     114.285
  O     -620.127     288.999     116.757
  H     -625.581     286.508     113.077
  H     -619.816     290.469     114.721
  H     -628.460     291.979     114.484
  H     -622.991     289.444     116.704
  H     -625.522     286.962     115.520
  H     -623.189     287.930     113.741
  H     -629.686     290.313     113.397
  H     -622.657     285.569     113.400
  H     -629.018     288.726     113.257
  H     -622.959     284.952     116.105
  H     -621.022     286.434     116.675
  H     -620.705     285.455     115.267
  P     -624.078     283.387     113.667
  C     -624.083     282.220     115.984
  O     -623.320     282.675     114.885
  O     -622.918     283.628     112.593
  O     -625.226     282.626     113.090
  H     -622.887     282.900     111.956
  H     -624.190     281.133     115.920
  H     -625.073     282.678     116.019
  H     -623.550     282.468     116.908
  H     -616.793     287.587     114.034
  H     -617.517     289.176     114.078
  H     -618.269     287.899     113.153

 3  4  5  6  7  8  9  10  11  12  23  26  30  31 0
 6-311+G(2d,p)
 ****
 33  35  36  37  38 0
 6-311+G(2d,p)
 ****
 1  2  13  14  15  16  17  18  19  20  21  22  24  25 0
 3-21G
 ****
 27  28  29  32  34  39  40  41  42  43  44  45  46  47  48  49 0
 3-21G
 ****


