%nproc=1
%NoSave
%Mem=1900MB
#P OB98/GEN NMR

erre ene a

0 1
  C      159.163      25.212     447.781
  O      158.351      26.336     447.501
  H      158.621      24.306     447.494
  H      159.379      25.168     448.852
  H      160.095      25.261     447.213
  P      159.052      27.770     447.633
  C      159.580      28.335     445.127
  O      160.069      27.920     446.395
  C      160.120      29.720     444.785
  O      159.730      30.683     445.786
  C      161.636      29.814     444.771
  O      162.209      29.178     443.648
  C      161.827      31.324     444.776
  O      161.744      31.873     443.455
  C      160.638      31.802     445.644
  N      161.081      32.319     446.925
  C      160.277      33.326     447.475
  O      159.263      33.698     446.884
  N      160.664      33.906     448.654
  C      161.770      33.535     449.222
  N      162.113      34.174     450.373
  C      162.646      32.480     448.676
  C      162.246      31.920     447.535
  O      160.027      27.563     448.884
  O      158.110      28.917     447.777
  H      162.469      31.462     442.940
  H      160.570      26.760     448.828
  H      163.551      32.198     449.194
  H      162.830      31.137     447.064
  H      160.080      32.593     445.129
  H      162.804      31.605     445.176
  H      162.049      29.414     445.707
  H      159.692      30.026     443.822
  H      161.512      34.929     450.684
  H      158.485      28.342     445.121
  H      162.986      34.025     450.858
  H      159.912      27.602     444.387
  P      163.725      28.663     443.668
  C      163.518      26.235     444.507
  O      163.829      27.581     444.853
  O      164.763      29.731     443.719
  O      163.806      27.734     442.364
  H      163.188      26.983     442.357
  H      163.622      25.612     445.371
  H      164.187      25.900     443.743
  H      162.511      26.182     444.148

 6  7  8  9  10  11  12  13  14  15  16  26  30  31  32  33  35 0
 6-311+G(2d,p)
 ****
 37  38 0
 6-311+G(2d,p)
 ****
 1  2  3  4  5  17  18  19  20  21  22  23  24  25 0
 3-21G
 ****
 27  28  29  34  36  39  40  41  42  43  44  45  46 0
 3-21G
 ****


