%nproc=1
%NoSave
%Mem=1900MB
#P OB98/GEN NMR

erre ene a

0 1
  C     -556.010     345.175     317.059
  O     -554.924     345.418     316.189
  H     -556.570     346.103     317.187
  H     -555.636     344.855     318.036
  H     -556.681     344.415     316.653
  P     -554.109     344.170     315.599
  C     -555.076     344.055     313.210
  O     -553.969     344.424     314.020
  C     -554.980     344.705     311.826
  O     -555.140     346.146     311.974
  C     -553.644     344.460     311.114
  O     -553.906     344.442     309.705
  C     -552.863     345.705     311.487
  O     -551.756     345.898     310.634
  C     -553.965     346.765     311.416
  N     -553.604     347.998     312.120
  C     -553.528     349.150     311.350
  O     -553.719     349.163     310.133
  N     -553.182     350.295     312.016
  C     -552.849     350.378     313.336
  O     -552.513     351.426     313.872
  C     -552.900     349.115     314.090
  C     -553.274     348.000     313.460
  O     -554.632     342.823     315.969
  O     -552.613     344.394     316.122
  H     -551.227     346.668     310.932
  H     -552.169     343.533     316.245
  H     -553.134     351.142     311.474
  H     -552.634     349.147     315.137
  H     -553.324     347.054     313.988
  H     -554.185     347.025     310.371
  H     -552.476     345.626     312.509
  H     -553.153     343.535     311.424
  H     -555.824     344.353     311.217
  H     -555.988     344.387     313.715
  H     -555.105     342.966     313.107
  P     -553.424     343.235     308.763
  C     -555.453     341.649     308.725
  O     -554.703     342.625     308.009
  O     -552.579     342.216     309.455
  O     -552.604     343.945     307.585
  H     -551.930     343.330     307.238
  H     -556.275     341.319     308.124
  H     -555.824     342.079     309.632
  H     -554.824     340.815     308.957

 6  7  8  9  10  11  12  13  14  15  16  26  31  32  33  34  35 0
 6-311+G(2d,p)
 ****
 36  37 0
 6-311+G(2d,p)
 ****
 1  2  3  4  5  17  18  19  20  21  22  23  24  25 0
 3-21G
 ****
 27  28  29  30  38  39  40  41  42  43  44  45 0
 3-21G
 ****


