%nproc=1
%NoSave
%Mem=1900MB
#P OB98/GEN NMR

erre ene a

0 1
  C       -5.112     249.190     175.882
  O       -6.389     249.336     176.475
  H       -5.023     249.910     175.064
  H       -5.001     248.180     175.478
  H       -4.326     249.389     176.615
  P       -6.656     248.497     177.821
  C       -4.636     248.785     179.473
  O       -5.867     249.282     178.977
  C       -4.132     249.655     180.627
  O       -3.705     250.932     180.093
  C       -5.188     249.928     181.702
  O       -4.544     249.938     182.979
  C       -5.688     251.322     181.362
  O       -6.254     251.976     182.495
  C       -4.422     251.973     180.788
  N       -4.728     253.094     179.899
  C       -5.031     254.316     180.509
  O       -5.056     254.407     181.738
  N       -5.346     255.391     179.717
  C       -5.418     255.245     178.429
  N       -5.752     256.346     177.702
  C       -5.154     253.962     177.746
  C       -4.809     252.945     178.532
  O       -5.769     247.190     177.569
  O       -8.099     248.228     178.097
  H       -6.628     252.835     182.196
  H       -4.902     247.377     177.171
  H       -5.241     253.887     176.672
  H       -4.593     251.967     178.113
  H       -3.776     252.339     181.595
  H       -6.465     251.264     180.590
  H       -6.000     249.201     181.706
  H       -3.243     249.179     181.055
  H       -5.944     257.202     178.211
  H       -3.884     248.767     178.677
  H       -5.890     256.336     176.703
  H       -4.798     247.758     179.815
  P       -4.925     248.814     184.056
  C       -3.576     246.638     183.754
  O       -3.626     247.920     184.359
  O       -6.174     248.045     183.776
  O       -5.079     249.663     185.414
  H       -5.831     249.293     185.917
  H       -2.667     246.147     184.033
  H       -3.612     246.744     182.690
  H       -4.411     246.056     184.083

 6  7  8  9  10  11  12  13  14  15  16  26  30  31  32  33  35 0
 6-311+G(2d,p)
 ****
 37  38 0
 6-311+G(2d,p)
 ****
 1  2  3  4  5  17  18  19  20  21  22  23  24  25 0
 3-21G
 ****
 27  28  29  34  36  39  40  41  42  43  44  45  46 0
 3-21G
 ****


