%nproc=1
%NoSave
%Mem=1900MB
#P OB98/GEN NMR

erre ene a

0 1
  C      524.176     187.852    -187.467
  O      523.705     189.106    -186.970
  P      524.751     190.119    -186.312
  C      523.820     189.428    -184.011
  O      524.249     190.509    -184.839
  C      522.901     189.932    -182.889
  O      523.452     191.144    -182.289
  C      521.492     190.285    -183.390
  O      520.515     190.015    -182.367
  C      521.560     191.792    -183.579
  O      520.258     192.379    -183.575
  C      522.456     192.190    -182.397
  N      522.334     197.118    -181.005
  C      521.607     196.053    -180.590
  N      521.711     194.767    -180.990
  C      522.685     194.624    -181.915
  C      523.516     195.617    -182.417
  C      523.298     196.924    -181.937
  N      524.022     198.014    -182.375
  N      524.406     195.097    -183.343
  C      524.085     193.820    -183.425
  N      523.087     193.480    -182.552
  O      525.147     191.285    -187.162
  O      526.019     189.185    -186.008
  H      520.362     193.329    -183.754
  H      526.840     189.656    -186.247
  H      520.844     196.261    -179.848
  H      524.537     193.105    -184.101
  H      521.891     192.204    -181.452
  H      522.040     192.023    -184.530
  H      521.198     189.765    -184.312
  H      522.853     189.188    -182.091
  H      524.690     188.924    -183.584
  H      523.712     198.925    -182.059
  H      524.635     197.904    -183.169
  H      523.316     188.682    -184.633
  P      519.977     188.502    -182.298
  C      517.519     189.275    -181.800
  O      518.651     188.546    -181.385
  O      521.028     187.508    -181.889
  O      519.425     188.272    -183.789
  H      518.826     188.961    -184.111
  H      516.703     189.075    -181.117
  H      517.223     188.985    -182.812
  H      517.744     190.348    -181.785
  H      523.355     187.298    -187.872
  H      524.622     187.297    -186.669
  H      524.903     188.022    -188.233

 3  4  5  6  7  8  9  10  11  12  22  25  29  30  31  32 0
 6-311+G(2d,p)
 ****
 33  36  37 0
 6-311+G(2d,p)
 ****
 1  2  13  14  15  16  17  18  19  20  21  23  24  26 0
 3-21G
 ****
 27  28  34  35  38  39  40  41  42  43  44  45  46  47  48 0
 3-21G
 ****


