%nproc=1
%NoSave
%Mem=1900MB
#P OB98/GEN NMR

erre ene a

0 1
  C     -507.587     171.715    -789.820
  O     -508.602     172.292    -789.003
  P     -508.539     173.881    -788.797
  C     -510.925     174.183    -789.775
  O     -509.551     174.549    -789.851
  C     -511.650     174.576    -791.068
  O     -510.913     174.224    -792.247
  C     -513.009     173.906    -791.218
  O     -513.979     174.587    -790.425
  C     -513.261     174.042    -792.712
  O     -513.817     175.335    -793.033
  C     -511.849     173.912    -793.311
  N     -511.075     171.248    -797.556
  C     -511.522     172.546    -797.391
  N     -511.773     173.243    -798.518
  N     -511.703     173.104    -796.227
  C     -511.409     172.297    -795.185
  C     -510.930     171.005    -795.222
  C     -510.739     170.393    -796.522
  O     -510.329     169.255    -796.716
  N     -510.694     170.519    -793.961
  C     -511.149     171.476    -793.160
  N     -511.529     172.595    -793.852
  O     -507.083     174.270    -789.358
  O     -508.710     174.306    -787.380
  H     -514.679     175.428    -792.593
  H     -506.509     174.530    -788.623
  H     -510.968     170.867    -798.472
  H     -511.192     171.413    -792.087
  H     -511.677     174.621    -794.115
  H     -513.976     173.297    -793.073
  H     -511.654     172.871    -799.447
  H     -512.950     172.852    -790.941
  H     -512.096     174.199    -798.418
  H     -511.781     175.669    -791.053
  H     -511.403     174.675    -788.925
  H     -510.991     173.107    -789.610
  P     -514.111     174.171    -788.882
  C     -513.362     176.487    -787.984
  O     -513.112     175.096    -788.048
  O     -513.428     172.720    -788.843
  O     -515.513     174.119    -788.377
  H     -513.974     172.117    -788.305
  H     -512.969     176.868    -787.035
  H     -514.425     176.704    -788.049
  H     -512.842     176.981    -788.807
  H     -507.736     170.657    -789.880
  H     -506.627     171.916    -789.392
  H     -507.635     172.139    -790.801

 3  4  5  6  7  8  9  10  11  12  23  26  30  31 0
 6-311+G(2d,p)
 ****
 33  35  36  37  38 0
 6-311+G(2d,p)
 ****
 1  2  13  14  15  16  17  18  19  20  21  22  24  25 0
 3-21G
 ****
 27  28  29  32  34  39  40  41  42  43  44  45  46  47  48  49 0
 3-21G
 ****


