%nproc=1
%NoSave
%Mem=1900MB
#P OB98/GEN NMR

erre ene a

0 1
  C       -0.303     174.280    -264.180
  O       -0.946     175.511    -263.898
  P       -2.545     175.570    -264.050
  C       -2.241     178.123    -264.446
  O       -2.872     176.918    -264.856
  C       -2.574     179.250    -265.422
  O       -1.806     179.119    -266.635
  C       -4.030     179.279    -265.869
  O       -4.876     179.902    -264.917
  C       -3.931     180.126    -267.126
  O       -3.871     181.523    -266.777
  C       -2.595     179.667    -267.721
  N       -2.377     178.794    -272.700
  C       -1.957     179.893    -271.977
  N       -1.465     180.927    -272.690
  N       -2.012     179.969    -270.673
  C       -2.537     178.861    -270.095
  C       -2.983     177.711    -270.703
  C       -2.929     177.645    -272.148
  O       -3.333     176.722    -272.848
  N       -3.437     176.803    -269.785
  C       -3.266     177.395    -268.621
  N       -2.763     178.664    -268.759
  O       -3.043     175.899    -262.566
  O       -3.164     174.325    -264.589
  H       -3.684     182.009    -267.603
  H       -3.994     175.692    -262.480
  H       -2.319     178.785    -273.704
  H       -3.505     176.956    -267.661
  H       -2.028     180.500    -268.148
  H       -4.792     180.003    -267.791
  H       -1.453     180.957    -273.700
  H       -4.383     178.274    -266.133
  H       -1.208     181.771    -272.190
  H       -2.298     180.201    -264.948
  H       -1.160     177.971    -264.417
  H       -2.580     178.383    -263.437
  P       -6.373     179.334    -264.802
  C       -7.278     181.751    -264.497
  O       -7.322     180.550    -265.240
  O       -6.597     179.222    -263.223
  O       -6.598     178.036    -265.502
  H       -7.263     178.535    -263.019
  H       -7.767     182.540    -265.077
  H       -6.247     182.053    -264.299
  H       -7.813     181.622    -263.552
  H        0.752     174.388    -264.038
  H       -0.500     173.999    -265.194
  H       -0.676     173.524    -263.521

 3  4  5  6  7  8  9  10  11  12  23  26  30  31 0
 6-311+G(2d,p)
 ****
 33  35  36  37  38 0
 6-311+G(2d,p)
 ****
 1  2  13  14  15  16  17  18  19  20  21  22  24  25 0
 3-21G
 ****
 27  28  29  32  34  39  40  41  42  43  44  45  46  47  48  49 0
 3-21G
 ****


