%nproc=1
%NoSave
%Mem=1900MB
#P OB98/GEN NMR

erre ene a

0 1
  C      265.450      60.399     247.477
  O      264.887      61.662     247.159
  P      264.348      62.564     248.374
  C      261.841      62.400     247.722
  O      262.845      62.091     248.678
  C      260.946      63.539     248.219
  O      259.904      63.780     247.229
  C      260.252      63.267     249.561
  O      260.170      64.520     250.247
  C      258.876      62.793     249.118
  O      257.894      62.832     250.138
  C      258.642      63.720     247.929
  N      253.582      63.383     247.268
  C      254.328      63.978     248.230
  N      255.672      64.031     248.334
  C      256.254      63.396     247.303
  C      255.627      62.734     246.263
  C      254.223      62.740     246.266
  N      253.465      62.126     245.288
  N      256.555      62.177     245.404
  C      257.722      62.498     245.918
  N      257.591      63.253     247.054
  O      264.154      64.000     247.698
  O      265.254      62.622     249.565
  H      258.234      62.393     250.942
  H      264.418      64.714     248.307
  H      253.771      64.472     249.019
  H      258.684      62.203     245.521
  H      258.384      64.737     248.251
  H      258.952      61.750     248.784
  H      260.788      62.548     250.190
  H      261.553      64.450     248.285
  H      261.214      61.519     247.561
  H      252.481      62.018     245.487
  H      253.944      61.483     244.674
  H      262.312      62.657     246.768
  P      260.067      64.523     251.851
  C      258.071      66.105     251.497
  O      258.536      64.935     252.134
  O      260.833      65.885     252.200
  O      260.590      63.316     252.540
  H      260.496      66.632     251.676
  H      257.002      66.211     251.698
  H      258.224      66.039     250.415
  H      258.594      66.981     251.897
  H      265.764      59.912     246.578
  H      264.717      59.796     247.972
  H      266.293      60.536     248.121

 3  4  5  6  7  8  9  10  11  12  22  25  29  30  31  32 0
 6-311+G(2d,p)
 ****
 33  36  37 0
 6-311+G(2d,p)
 ****
 1  2  13  14  15  16  17  18  19  20  21  23  24  26 0
 3-21G
 ****
 27  28  34  35  38  39  40  41  42  43  44  45  46  47  48 0
 3-21G
 ****


