%nproc=1
%NoSave
%Mem=1900MB
#P OB98/GEN NMR

erre ene a

0 1
  C       87.619    -324.151    -250.492
  O       89.009    -324.388    -250.770
  P       90.202    -323.574    -250.070
  C       91.985    -321.820    -250.697
  O       90.900    -322.617    -251.157
  C       92.202    -320.589    -251.587
  O       92.631    -321.004    -252.924
  C       90.953    -319.698    -251.767
  O       91.411    -318.350    -251.764
  C       90.460    -320.129    -253.142
  O       89.578    -319.193    -253.744
  C       91.803    -320.286    -253.861
  N       91.746    -320.985    -255.143
  C       91.544    -320.214    -256.295
  O       91.362    -319.004    -256.234
  N       91.537    -320.853    -257.516
  C       91.702    -322.136    -257.577
  N       91.688    -322.700    -258.821
  C       91.897    -322.985    -256.394
  C       91.914    -322.351    -255.223
  O       91.165    -324.442    -249.332
  O       89.482    -322.549    -249.068
  H       90.038    -322.452    -248.264
  H       89.659    -319.291    -254.716
  H       92.044    -324.051    -256.497
  H       92.080    -322.904    -254.304
  H       92.261    -319.299    -254.006
  H       89.928    -321.078    -253.047
  H       90.218    -319.824    -250.967
  H       93.026    -320.007    -251.166
  H       91.561    -322.081    -259.617
  H       92.896    -322.431    -250.709
  H       91.817    -323.689    -258.987
  H       91.790    -321.516    -249.664
  P       90.935    -317.348    -250.608
  C       88.985    -315.646    -250.293
  O       89.569    -316.653    -251.090
  O       91.981    -316.138    -250.752
  O       90.965    -317.885    -249.212
  H       92.065    -315.681    -249.899
  H       88.666    -314.825    -250.940
  H       89.671    -315.254    -249.540
  H       88.097    -316.057    -249.789
  H       87.020    -324.815    -251.079
  H       87.374    -323.139    -250.737
  H       87.429    -324.323    -249.453

 3  4  5  6  7  8  9  10  11  12  13  24  27  28  29  30  32 0
 6-311+G(2d,p)
 ****
 34  35 0
 6-311+G(2d,p)
 ****
 1  2  14  15  16  17  18  19  20  21  22  23  25  26 0
 3-21G
 ****
 31  33  36  37  38  39  40  41  42  43  44  45  46 0
 3-21G
 ****


