%nproc=1
%NoSave
%Mem=1900MB
#P OB98/GEN NMR

erre ene a

0 1
  C     -196.657     347.132    -154.927
  O     -196.148     345.840    -154.692
  H     -195.825     347.795    -155.180
  H     -197.143     347.523    -154.029
  H     -197.363     347.125    -155.761
  P     -197.154     344.666    -154.254
  C     -198.068     343.923    -151.970
  O     -197.580     345.018    -152.740
  C     -197.821     344.148    -150.478
  O     -196.389     344.192    -150.224
  C     -198.426     345.456    -149.940
  O     -199.127     345.198    -148.724
  C     -197.210     346.321    -149.654
  O     -197.461     347.324    -148.673
  C     -196.179     345.259    -149.275
  N     -194.814     345.772    -149.309
  C     -194.408     346.519    -148.203
  O     -195.186     346.709    -147.263
  N     -193.157     347.086    -148.208
  C     -192.398     346.956    -149.250
  N     -191.179     347.562    -149.205
  C     -192.802     346.194    -150.455
  C     -194.009     345.633    -150.417
  O     -196.626     343.285    -154.457
  O     -198.498     344.952    -155.074
  H     -198.146     347.936    -149.023
  H     -199.015     344.116    -155.137
  H     -192.131     346.120    -151.298
  H     -194.390     345.057    -151.255
  H     -196.376     344.858    -148.267
  H     -196.900     346.826    -150.579
  H     -199.104     345.936    -150.645
  H     -198.201     343.278    -149.927
  H     -190.953     348.076    -148.359
  H     -197.565     343.008    -152.308
  H     -190.516     347.549    -149.959
  H     -199.144     343.831    -152.144
  P     -200.662     344.741    -148.869
  C     -202.904     345.863    -149.548
  O     -201.536     346.043    -149.219
  O     -201.086     344.380    -147.366
  O     -200.850     343.577    -149.789
  H     -201.207     343.415    -147.281
  H     -203.349     346.814    -149.755
  H     -203.411     345.403    -148.726
  H     -202.984     345.237    -150.412

 6  7  8  9  10  11  12  13  14  15  16  26  30  31  32  33  35 0
 6-311+G(2d,p)
 ****
 37  38 0
 6-311+G(2d,p)
 ****
 1  2  3  4  5  17  18  19  20  21  22  23  24  25 0
 3-21G
 ****
 27  28  29  34  36  39  40  41  42  43  44  45  46 0
 3-21G
 ****


