%nproc=1
%NoSave
%Mem=1900MB
#P OB98/GEN NMR

erre ene a

0 1
  C      -87.750      42.955    -158.693
  O      -86.444      42.434    -158.547
  H      -87.814      43.902    -158.151
  H      -88.484      42.261    -158.276
  H      -87.968      43.134    -159.749
  P      -86.179      40.985    -159.187
  C      -85.851      38.790    -157.815
  O      -86.609      39.973    -158.015
  C      -85.951      38.356    -156.356
  O      -85.254      39.286    -155.500
  C      -87.377      38.298    -155.821
  O      -88.072      37.130    -156.223
  C      -87.108      38.309    -154.327
  O      -86.651      37.010    -153.910
  C      -85.971      39.352    -154.236
  N      -86.456      40.711    -153.990
  C      -87.103      40.935    -152.770
  O      -87.255      40.020    -151.964
  N      -87.595      42.191    -152.503
  C      -87.446      43.143    -153.372
  N      -87.965      44.361    -153.062
  C      -86.756      42.954    -154.662
  C      -86.294      41.729    -154.903
  O      -84.583      40.859    -159.188
  O      -86.818      40.727    -160.510
  H      -87.335      36.369    -154.178
  H      -84.320      39.944    -159.451
  H      -86.666      43.774    -155.358
  H      -85.777      41.516    -155.833
  H      -85.260      39.087    -153.444
  H      -87.992      38.546    -153.734
  H      -87.943      39.198    -156.081
  H      -85.449      37.383    -156.259
  H      -88.486      44.444    -152.199
  H      -84.809      38.998    -158.077
  H      -88.057      45.104    -153.744
  H      -86.227      37.989    -158.459
  P      -89.636      37.035    -155.868
  C      -91.039      36.731    -153.704
  O      -89.746      36.870    -154.277
  O      -90.042      35.587    -156.415
  O      -90.484      38.116    -156.461
  H      -90.930      35.598    -156.820
  H      -90.950      36.631    -152.642
  H      -91.515      35.861    -154.105
  H      -91.625      37.596    -153.933

 6  7  8  9  10  11  12  13  14  15  16  26  30  31  32  33  35 0
 6-311+G(2d,p)
 ****
 37  38 0
 6-311+G(2d,p)
 ****
 1  2  3  4  5  17  18  19  20  21  22  23  24  25 0
 3-21G
 ****
 27  28  29  34  36  39  40  41  42  43  44  45  46 0
 3-21G
 ****


