%nproc=1
%NoSave
%Mem=1900MB
#P OB98/GEN NMR

erre ene a

0 1
  C     -259.903     937.574       1.915
  O     -258.901     937.983       1.009
  H     -260.801     937.311       1.350
  H     -260.144     938.392       2.600
  H     -259.574     936.696       2.481
  P     -257.432     938.216       1.612
  C     -256.441     938.030      -0.784
  O     -256.535     938.799       0.412
  C     -255.987     938.927      -1.938
  O     -257.032     939.874      -2.280
  C     -254.733     939.751      -1.649
  O     -253.555     938.992      -1.843
  C     -254.875     940.838      -2.695
  O     -254.483     940.320      -3.987
  C     -256.380     941.120      -2.681
  N     -256.508     946.127      -1.877
  C     -255.996     945.414      -2.954
  N     -255.444     946.129      -3.949
  N     -256.037     944.110      -3.036
  C     -256.616     943.522      -1.960
  C     -257.140     944.119      -0.837
  C     -257.109     945.569      -0.763
  O     -257.553     946.247       0.156
  N     -257.643     943.200       0.033
  C     -257.410     942.031      -0.547
  N     -256.778     942.169      -1.752
  O     -256.865     936.729       1.806
  O     -257.379     938.987       2.894
  H     -253.563     940.024      -3.904
  H     -256.312     936.700       2.610
  H     -256.443     947.130      -1.861
  H     -257.678     941.069      -0.125
  H     -256.778     941.401      -3.662
  H     -254.238     941.704      -2.490
  H     -255.341     947.129      -3.928
  H     -254.778     940.200      -0.652
  H     -255.111     945.625      -4.759
  H     -255.834     938.288      -2.816
  H     -257.432     937.619      -1.008
  H     -255.731     937.220      -0.633
  P     -252.367     939.180      -0.778
  C     -251.624     936.697      -0.948
  O     -251.276     938.060      -1.147
  O     -253.023     938.637       0.583
  O     -251.864     940.568      -0.635
  H     -252.554     939.010       1.349
  H     -250.803     936.074      -1.236
  H     -252.480     936.457      -1.543
  H     -251.851     936.534       0.085

 6  7  8  9  10  11  12  13  14  15  26  29  33  34 0
 6-311+G(2d,p)
 ****
 36  38  39  40  41 0
 6-311+G(2d,p)
 ****
 1  2  3  4  5  16  17  18  19  20  21  22  23  24  25 0
 3-21G
 ****
 27  28  30  31  32  35  37  42  43  44  45  46  47 0
 3-21G
 ****
 48  49 0
 3-21G
 ****


