%nproc=1
%NoSave
%Mem=1900MB
#P OB98/GEN NMR

erre ene a

0 1
  C     1011.177    -580.824    -364.586
  O     1012.274    -581.706    -364.412
  H     1011.436    -580.103    -365.362
  H     1010.982    -580.290    -363.654
  H     1010.282    -581.366    -364.903
  P     1012.089    -582.975    -363.449
  C     1013.901    -582.003    -361.889
  O     1012.582    -582.521    -361.986
  C     1014.187    -581.571    -360.443
  O     1013.346    -580.427    -360.098
  C     1013.881    -582.647    -359.401
  O     1014.881    -583.661    -359.397
  C     1013.792    -581.807    -358.150
  O     1015.082    -581.535    -357.623
  C     1013.132    -580.513    -358.669
  N     1011.704    -580.449    -358.359
  C     1011.354    -579.952    -357.098
  O     1012.198    -579.539    -356.273
  N     1010.017    -579.958    -356.781
  C     1009.042    -580.578    -357.544
  O     1007.910    -580.774    -357.113
  C     1009.435    -581.013    -358.866
  C     1010.735    -580.954    -359.215
  O     1012.686    -584.256    -363.949
  O     1010.497    -583.093    -363.271
  H     1010.164    -583.813    -363.839
  H     1014.945    -580.921    -356.862
  H     1009.770    -579.638    -355.854
  H     1008.684    -581.434    -359.513
  H     1011.063    -581.329    -360.181
  H     1013.619    -579.628    -358.228
  H     1013.198    -582.307    -357.372
  H     1012.907    -583.099    -359.616
  H     1015.242    -581.241    -360.377
  H     1013.996    -581.137    -362.550
  H     1014.622    -582.768    -362.200
  P     1014.503    -585.153    -358.950
  C     1016.432    -585.457    -357.273
  O     1015.018    -585.368    -357.446
  O     1014.917    -586.216    -359.921
  O     1012.906    -585.114    -358.781
  H     1012.523    -585.865    -359.289
  H     1016.656    -585.599    -356.236
  H     1016.891    -584.554    -357.617
  H     1016.809    -586.285    -357.836

 6  7  8  9  10  11  12  13  14  15  16  27  31  32  33  34  35 0
 6-311+G(2d,p)
 ****
 36  37 0
 6-311+G(2d,p)
 ****
 1  2  3  4  5  17  18  19  20  21  22  23  24  25 0
 3-21G
 ****
 26  28  29  30  38  39  40  41  42  43  44  45 0
 3-21G
 ****


