%nproc=1
%NoSave
%Mem=1900MB
#P OB98/GEN NMR

erre ene a

0 1
  C      465.627      60.508    -275.613
  O      465.716      59.680    -274.475
  H      465.314      59.898    -276.464
  H      466.606      60.941    -275.834
  H      464.896      61.308    -275.467
  P      465.841      60.362    -273.031
  C      463.714      59.081    -272.315
  O      464.379      60.336    -272.369
  C      462.285      59.245    -271.789
  O      462.335      59.840    -270.467
  C      461.464      60.193    -272.672
  O      460.070      59.895    -272.629
  C      461.701      61.545    -272.023
  O      460.680      62.497    -272.320
  C      461.781      61.164    -270.546
  N      461.842      64.684    -266.858
  C      460.764      64.123    -267.507
  N      459.537      64.551    -267.124
  N      460.874      63.237    -268.463
  C      462.158      62.955    -268.796
  C      463.308      63.463    -268.240
  C      463.176      64.419    -267.156
  O      464.095      64.965    -266.562
  N      464.430      62.947    -268.845
  C      463.958      62.131    -269.766
  N      462.581      62.083    -269.759
  O      466.042      61.917    -273.364
  O      466.944      59.839    -272.162
  H      459.901      62.272    -271.775
  H      466.465      62.374    -272.615
  H      461.701      65.338    -266.104
  H      464.560      61.544    -270.448
  H      460.778      61.137    -270.099
  H      462.642      61.952    -272.408
  H      459.423      65.365    -266.537
  H      461.796      60.194    -273.708
  H      458.771      64.394    -267.785
  H      461.811      58.263    -271.678
  H      464.298      58.439    -271.652
  H      463.712      58.611    -273.300
  P      459.236      59.917    -273.995
  C      459.658      57.333    -274.380
  O      459.620      58.651    -274.888
  O      459.861      61.154    -274.798
  O      457.758      60.057    -273.816
  H      459.193      61.853    -274.924
  H      459.939      56.658    -275.161
  H      458.691      57.066    -274.009
  H      460.373      57.277    -273.586

 6  7  8  9  10  11  12  13  14  15  26  29  33  34 0
 6-311+G(2d,p)
 ****
 36  38  39  40  41 0
 6-311+G(2d,p)
 ****
 1  2  3  4  5  16  17  18  19  20  21  22  23  24  25 0
 3-21G
 ****
 27  28  30  31  32  35  37  42  43  44  45  46  47 0
 3-21G
 ****
 48  49 0
 3-21G
 ****


