%nproc=1
%NoSave
%Mem=1900MB
#P OB98/GEN NMR

erre ene a

0 1
  C      -11.718     152.733      55.688
  O      -10.363     152.421      55.944
  H      -11.825     153.145      54.681
  H      -12.311     151.818      55.758
  H      -12.086     153.451      56.425
  P       -9.311     153.628      55.851
  C       -8.755     155.450      54.090
  O       -9.394     154.207      54.352
  C       -8.156     155.441      52.686
  O       -6.938     154.653      52.714
  C       -9.076     154.858      51.599
  O       -9.297     155.823      50.565
  C       -8.286     153.699      51.014
  O       -8.400     153.599      49.595
  C       -6.852     153.995      51.444
  N       -4.832     150.156      48.769
  C       -5.215     151.396      48.399
  N       -5.646     152.410      49.178
  C       -5.635     152.049      50.473
  C       -5.250     150.831      51.006
  C       -4.849     149.846      50.086
  N       -4.510     148.563      50.458
  N       -5.384     150.832      52.382
  C       -5.886     152.016      52.671
  N       -6.072     152.778      51.547
  O       -7.893     152.883      55.887
  O       -9.424     154.652      56.930
  H       -9.353     153.547      49.393
  H       -7.309     153.322      56.533
  H       -5.178     151.602      47.332
  H       -6.172     152.354      53.659
  H       -6.342     154.671      50.745
  H       -8.648     152.761      51.456
  H      -10.039     154.517      51.999
  H       -7.869     156.469      52.428
  H       -7.953     155.611      54.819
  H       -4.349     147.888      49.726
  H       -4.626     148.293      51.426
  H       -9.489     156.256      54.196
  P      -10.828     156.109      50.158
  C      -12.586     154.906      48.659
  O      -11.364     154.811      49.381
  O      -10.691     157.202      48.998
  O      -11.676     156.589      51.287
  H      -11.498     157.752      48.959
  H      -12.804     153.964      48.201
  H      -12.496     155.658      47.903
  H      -13.377     155.168      49.330

 6  7  8  9  10  11  12  13  14  15  25  28  32  33  34  35 0
 6-311+G(2d,p)
 ****
 36  39  40 0
 6-311+G(2d,p)
 ****
 1  2  3  4  5  16  17  18  19  20  21  22  23  24 0
 3-21G
 ****
 26  27  29  30  31  37  38  41  42  43  44  45  46  47  48 0
 3-21G
 ****


