%nproc=1
%NoSave
%Mem=1900MB
#P OB98/GEN NMR

erre ene a

0 1
  C      203.817      34.200     736.014
  O      204.084      33.681     737.302
  H      203.064      33.572     735.532
  H      204.728      34.186     735.406
  H      203.433      35.221     736.088
  P      205.191      34.457     738.168
  C      203.775      36.105     739.586
  O      204.474      34.869     739.544
  C      203.001      36.236     740.894
  O      201.898      35.304     740.932
  C      203.832      35.973     742.146
  O      204.563      37.129     742.526
  C      202.749      35.607     743.151
  O      202.106      36.783     743.689
  C      201.770      34.797     742.288
  N      200.912      30.537     744.850
  C      200.463      31.817     745.084
  N      199.717      32.005     746.195
  N      200.729      32.833     744.305
  C      201.513      32.503     743.248
  C      202.008      31.265     742.902
  C      201.675      30.148     743.759
  O      201.988      28.974     743.571
  N      202.747      31.331     741.753
  C      202.734      32.609     741.422
  N      202.012      33.365     742.311
  O      205.349      35.857     737.406
  O      206.500      33.757     738.307
  H      202.754      37.297     744.197
  H      206.263      36.181     737.517
  H      200.657      29.794     745.481
  H      203.227      33.035     740.558
  H      200.731      34.946     742.594
  H      203.156      35.059     744.000
  H      199.765      31.364     746.975
  H      204.497      35.114     742.001
  H      199.404      32.947     746.383
  H      202.572      37.244     740.924
  H      203.070      36.141     738.748
  H      204.494      36.927     739.490
  P      205.920      36.913     743.358
  C      207.411      37.178     741.247
  O      207.075      37.662     742.537
  O      206.250      35.365     743.130
  O      205.821      37.262     744.807
  H      206.892      35.057     743.799
  H      208.193      37.780     740.833
  H      206.550      37.226     740.613
  H      207.743      36.164     741.322

 6  7  8  9  10  11  12  13  14  15  26  29  33  34 0
 6-311+G(2d,p)
 ****
 36  38  39  40  41 0
 6-311+G(2d,p)
 ****
 1  2  3  4  5  16  17  18  19  20  21  22  23  24  25 0
 3-21G
 ****
 27  28  30  31  32  35  37  42  43  44  45  46  47 0
 3-21G
 ****
 48  49 0
 3-21G
 ****


