%nproc=1
%NoSave
%Mem=1900MB
#P OB98/GEN NMR

erre ene a

0 1
  C     -328.227    -309.257    -315.382
  O     -327.937    -309.831    -316.659
  P     -329.108    -309.868    -317.751
  C     -328.033    -308.243    -319.472
  O     -329.087    -308.482    -318.553
  C     -327.967    -306.756    -319.839
  O     -327.905    -305.925    -318.660
  C     -326.752    -306.392    -320.682
  O     -326.967    -306.659    -322.053
  C     -326.682    -304.886    -320.446
  O     -327.641    -304.216    -321.295
  C     -327.093    -304.756    -318.973
  N     -324.138    -301.702    -316.237
  C     -325.226    -301.405    -317.039
  N     -325.586    -300.102    -317.109
  N     -325.902    -302.307    -317.705
  C     -325.436    -303.566    -317.519
  C     -324.370    -303.980    -316.763
  C     -323.622    -302.973    -316.039
  O     -322.639    -303.169    -315.332
  N     -324.201    -305.336    -316.831
  C     -325.179    -305.750    -317.619
  N     -325.953    -304.707    -318.076
  O     -330.431    -309.739    -316.856
  O     -329.133    -311.109    -318.590
  H     -327.298    -304.274    -322.201
  H     -331.182    -310.167    -317.307
  H     -323.648    -300.966    -315.754
  H     -325.367    -306.783    -317.879
  H     -327.701    -303.869    -318.785
  H     -325.705    -304.465    -320.691
  H     -325.141    -299.368    -316.584
  H     -325.841    -306.870    -320.295
  H     -326.405    -299.875    -317.660
  H     -328.878    -306.507    -320.392
  H     -328.179    -308.841    -320.378
  H     -327.091    -308.592    -319.035
  P     -326.471    -308.075    -322.633
  C     -328.867    -309.074    -322.511
  O     -327.521    -309.159    -322.092
  O     -325.146    -308.357    -321.777
  O     -326.195    -308.098    -324.091
  H     -324.506    -308.873    -322.309
  H     -329.390    -309.976    -322.185
  H     -328.921    -309.008    -323.602
  H     -329.346    -308.198    -322.060
  H     -327.355    -309.303    -314.764
  H     -329.022    -309.802    -314.918
  H     -328.521    -308.236    -315.508

 3  4  5  6  7  8  9  10  11  12  23  26  30  31 0
 6-311+G(2d,p)
 ****
 33  35  36  37  38 0
 6-311+G(2d,p)
 ****
 1  2  13  14  15  16  17  18  19  20  21  22  24  25 0
 3-21G
 ****
 27  28  29  32  34  39  40  41  42  43  44  45  46  47  48  49 0
 3-21G
 ****


