%nproc=1
%NoSave
%Mem=1900MB
#P OB98/GEN NMR

erre ene a

0 1
  C       85.338      49.935     140.494
  O       86.296      48.962     140.126
  H       85.589      50.877     140.003
  H       85.351      50.085     141.577
  H       84.340      49.623     140.174
  P       86.094      47.490     140.729
  C       88.099      47.566     142.383
  O       86.687      47.525     142.219
  C       88.439      47.979     143.811
  O       88.066      49.361     144.021
  C       87.690      47.191     144.876
  O       88.253      45.911     145.097
  C       87.812      48.123     146.070
  O       89.065      47.952     146.743
  C       87.740      49.510     145.422
  N       84.564      51.776     148.712
  C       85.842      51.360     148.834
  N       86.625      50.774     147.904
  C       85.968      50.660     146.737
  C       84.667      51.043     146.461
  C       83.948      51.630     147.515
  N       82.639      52.032     147.399
  N       84.333      50.726     145.160
  C       85.415      50.170     144.655
  N       86.430      50.113     145.570
  O       87.159      46.616     139.915
  O       84.713      46.939     140.606
  H       88.992      48.441     147.586
  H       86.705      46.134     139.199
  H       86.293      51.506     149.812
  H       85.510      49.790     143.645
  H       88.469      50.207     145.853
  H       87.019      47.934     146.794
  H       86.630      47.104     144.604
  H       89.524      47.894     143.952
  H       88.524      48.295     141.685
  H       88.511      46.576     142.158
  H       82.164      52.382     148.215
  H       82.136      51.823     146.546
  P       87.385      44.849     145.926
  C       87.874      45.948     148.240
  O       86.903      45.574     147.271
  O       88.467      43.784     146.434
  O       86.291      44.200     145.148
  H       88.074      42.889     146.440
  H       87.388      46.417     149.070
  H       88.570      46.632     147.802
  H       88.395      45.077     148.578

 6  7  8  9  10  11  12  13  14  15  25  28  32  33  34  35 0
 6-311+G(2d,p)
 ****
 36  37  40 0
 6-311+G(2d,p)
 ****
 1  2  3  4  5  16  17  18  19  20  21  22  23  24 0
 3-21G
 ****
 26  27  29  30  31  38  39 41  42  43  44  45  46  47  48 0
 3-21G
 ****


