%nproc=1
%NoSave
%Mem=1900MB
#P OB98/GEN NMR

erre ene a

0 1
  C     -212.739     -61.761      31.300
  O     -213.280     -60.615      31.944
  P     -212.412     -59.264      31.903
  C     -212.490     -59.393      34.493
  O     -211.695     -59.168      33.333
  C     -212.054     -58.472      35.626
  O     -210.644     -58.625      35.864
  C     -212.264     -56.990      35.356
  O     -213.607     -56.592      35.589
  C     -211.322     -56.368      36.375
  O     -211.964     -56.323      37.663
  C     -210.154     -57.368      36.395
  N     -205.138     -56.643      36.375
  C     -205.962     -57.110      37.380
  N     -205.359     -57.459      38.539
  N     -207.260     -57.222      37.264
  C     -207.718     -56.877      36.039
  C     -207.004     -56.398      34.964
  C     -205.576     -56.228      35.122
  O     -204.804     -55.756      34.289
  N     -207.819     -56.169      33.883
  C     -209.014     -56.542      34.291
  N     -209.011     -56.951      35.603
  O     -213.526     -58.118      31.971
  O     -211.533     -59.115      30.708
  H     -211.398     -55.781      38.245
  H     -213.184     -57.296      31.565
  H     -204.146     -56.593      36.513
  H     -209.903     -56.533      33.677
  H     -209.812     -57.563      37.417
  H     -211.037     -55.342      36.124
  H     -204.357     -57.518      38.642
  H     -211.937     -56.725      34.343
  H     -205.942     -57.838      39.274
  H     -212.586     -58.778      36.537
  H     -212.372     -60.434      34.814
  H     -213.542     -59.221      34.237
  P     -214.201     -55.457      34.618
  C     -213.723     -53.313      36.004
  O     -213.336     -54.145      34.926
  O     -215.632     -55.138      35.257
  O     -214.297     -55.865      33.185
  H     -216.238     -54.796      34.573
  H     -214.112     -53.897      36.843
  H     -214.488     -52.608      35.664
  H     -212.851     -52.749      36.346
  H     -213.417     -62.582      31.405
  H     -211.801     -62.013      31.749
  H     -212.592     -61.550      30.261

 3  4  5  6  7  8  9  10  11  12  23  26  30  31  33  0
 6-311+G(2d,p)
 ****
 35  36  37  38 0
 6-311+G(2d,p)
 ****
 1  2  13  14  15  16  17  18  19  20  21  22  24  25  27  28  29 0
 3-21G
 ****
 32  34  39  40  41  42  43  44  45  46  47  48  49 0
 3-21G
 ****


