%nproc=1
%NoSave
%Mem=1900MB
#P OB98/GEN NMR

erre ene a

0 1
  C      -31.065      26.098     147.577
  O      -32.272      26.381     146.897
  H      -30.834      26.935     148.241
  H      -30.245      25.976     146.863
  H      -31.177      25.191     148.176
  P      -32.763      25.295     145.824
  C      -35.219      25.543     146.564
  O      -34.284      25.706     145.506
  C      -36.596      26.057     146.142
  O      -36.523      27.500     145.992
  C      -37.085      25.480     144.810
  O      -38.501      25.299     144.870
  C      -36.765      26.584     143.817
  O      -37.570      26.509     142.644
  C      -36.992      27.827     144.674
  N      -37.242      31.584     141.247
  C      -38.158      30.690     141.678
  N      -38.011      29.733     142.618
  C      -36.784      29.792     143.168
  C      -35.748      30.644     142.835
  C      -36.010      31.573     141.811
  N      -35.075      32.464     141.340
  N      -34.629      30.362     143.593
  C      -34.988      29.364     144.379
  N      -36.277      28.974     144.142
  O      -32.558      23.869     146.209
  O      -31.996      25.766     144.501
  H      -37.370      27.285     142.080
  H      -32.070      26.730     144.368
  H      -39.133      30.744     141.200
  H      -34.353      28.883     145.116
  H      -38.052      28.107     144.740
  H      -35.716      26.513     143.507
  H      -36.602      24.539     144.546
  H      -37.310      25.857     146.949
  H      -34.882      26.086     147.453
  H      -35.350      33.096     140.606
  H      -34.153      32.478     141.751
  H      -35.270      24.475     146.807
  P      -39.086      23.844     145.201
  C      -40.784      24.609     146.983
  O      -40.602      24.002     145.711
  O      -38.222      22.978     146.055
  O      -39.281      23.202     143.745
  H      -38.991      22.268     143.767
  H      -41.829      24.657     147.209
  H      -40.377      25.598     146.968
  H      -40.284      24.029     147.730

 6  7  8  9  10  11  12  13  14  15  25  28  32  33  34  35 0
 6-311+G(2d,p)
 ****
 36  39  40 0
 6-311+G(2d,p)
 ****
 1  2  3  4  5  16  17  18  19  20  21  22  23  24 0
 3-21G
 ****
 26  27  29  30  31  37  38  41  42  43  44  45  46  47 0
 3-21G
 ****
 48 0
 3-21G
 ****


