%nproc=1
%NoSave
%Mem=1900MB
#P OB98/GEN NMR

erre ene a

0 1
  C       56.861      -6.348     -41.154
  O       56.835      -5.895     -39.811
  P       57.899      -6.537     -38.793
  C       59.896      -5.095     -39.622
  O       59.337      -6.398     -39.494
  C       61.314      -5.038     -39.049
  O       62.123      -6.049     -39.698
  C       62.009      -3.687     -39.231
  O       62.796      -3.439     -38.065
  C       62.933      -3.920     -40.410
  O       64.037      -3.018     -40.402
  C       63.304      -5.400     -40.211
  N       63.763      -6.023     -41.448
  C       64.188      -7.355     -41.367
  O       64.240      -7.918     -40.274
  N       64.594      -7.992     -42.513
  C       64.671      -7.329     -43.624
  N       65.074      -8.005     -44.734
  C       64.347      -5.891     -43.727
  C       63.885      -5.315     -42.620
  O       57.591      -8.104     -38.892
  O       57.805      -6.030     -37.392
  H       64.557      -3.161     -41.225
  H       57.764      -8.548     -38.043
  H       64.464      -5.374     -44.670
  H       63.601      -4.272     -42.608
  H       64.095      -5.500     -39.457
  H       62.384      -3.787     -41.349
  H       61.303      -2.866     -39.383
  H       61.263      -5.299     -37.984
  H       65.303      -8.985     -44.633
  H       59.275      -4.387     -39.067
  H       65.164      -7.569     -45.640
  H       59.892      -4.801     -40.675
  P       63.101      -1.912     -37.684
  C       61.157      -2.165     -36.026
  O       61.738      -1.366     -37.039
  O       63.072      -1.212     -39.129
  O       64.367      -1.601     -36.960
  H       63.312      -0.272     -39.042
  H       60.321      -1.613     -35.584
  H       61.888      -2.383     -35.244
  H       60.776      -3.094     -36.458
  H       56.105      -5.841     -41.716
  H       56.677      -7.402     -41.179
  H       57.821      -6.144     -41.581

 3  4  5  6  7  8  9  10  11  12  13  21  23  27  28  29  30  32 0
 6-311+G(2d,p)
 ****
 34  35 0
 6-311+G(2d,p)
 ****
 1  2  14  15  16  17  18  19  20  22  24  25  26 0
 3-21G
 ****
 31  33  36  37  38  39  40  41  42  43  44  45  46 0
 3-21G
 ****


