%nproc=1
%NoSave
%Mem=1900MB
#P OB98/GEN NMR

erre ene a

0 1
  C     -892.510     873.804     402.827
  O     -893.210     874.764     402.048
  P     -894.810     874.811     402.171
  C     -896.810     873.499     401.205
  O     -895.410     873.582     401.334
  C     -897.220     872.135     400.624
  O     -896.800     872.031     399.254
  C     -896.610     870.945     401.381
  O     -897.520     869.838     401.370
  C     -895.430     870.553     400.512
  O     -895.040     869.193     400.708
  C     -895.980     870.853     399.104
  N     -893.850     868.953     394.937
  C     -895.060     868.646     395.525
  N     -895.760     867.611     394.979
  N     -895.550     869.271     396.565
  C     -894.740     870.271     397.020
  C     -893.520     870.678     396.508
  C     -893.000     869.963     395.371
  O     -891.920     870.154     394.812
  N     -893.030     871.724     397.214
  C     -893.900     871.939     398.183
  N     -894.950     871.048     398.115
  O     -895.180     876.104     401.273
  O     -895.320     874.969     403.574
  H     -895.760     868.625     400.377
  H     -895.430     876.850     401.859
  H     -893.520     868.436     394.145
  H     -893.830     872.709     398.955
  H     -896.660     870.051     398.758
  H     -894.560     871.193     400.734
  H     -895.410     867.038     394.203
  H     -896.310     871.151     402.409
  H     -896.640     867.331     395.418
  H     -898.320     872.066     400.641
  H     -897.170     874.276     400.532
  H     -897.290     873.645     402.176
  P     -898.110     869.386     402.787
  C     -897.410     867.507     404.457
  O     -897.020     868.395     403.433
  O     -899.340     868.424     402.395
  O     -898.530     870.533     403.659
  H     -900.000     868.429     403.122
  H     -897.290     866.487     404.098
  H     -898.470     867.658     404.770
  H     -896.770     867.664     405.319
  H     -891.460     873.891     402.641
  H     -892.839     872.821     402.561
  H     -892.704     873.977     403.865

 3  4  5  6  7  8  9  10  11  12  23  26  30  31 0
 6-311+G(2d,p)
 ****
 33  35  36  37  38 0
 6-311+G(2d,p)
 ****
 1  2  13  14  15  16  17  18  19  20  21  22  24  25 0
 3-21G
 ****
 27  28  29  32  34  39  40  41  42  43  44  45  46  47  48  49 0
 3-21G
 ****


