%nproc=1
%NoSave
%Mem=1900MB
#P OB98/GEN NMR

erre ene a

0 1
  C     -349.667     173.432      42.879
  O     -349.010     172.644      43.847
  H     -349.179     173.279      41.912
  H     -349.588     174.490      43.149
  H     -350.719     173.155      42.788
  P     -349.727     172.399      45.257
  C     -348.211     174.004      46.596
  O     -349.523     173.730      46.129
  C     -348.228     174.469      48.056
  O     -348.894     175.753      48.149
  C     -349.031     173.492      48.920
  O     -348.574     173.467      50.270
  C     -350.435     174.075      48.877
  O     -351.249     173.653      49.965
  C     -350.125     175.574      48.872
  N     -354.148     178.611      49.633
  C     -353.423     177.877      50.549
  N     -353.837     177.941      51.832
  N     -352.397     177.129      50.230
  C     -352.142     177.103      48.899
  C     -352.804     177.767      47.892
  C     -353.916     178.619      48.262
  O     -354.607     179.277      47.489
  N     -352.270     177.476      46.660
  C     -351.291     176.630      46.920
  N     -351.162     176.383      48.268
  O     -348.765     171.350      45.996
  O     -351.137     171.896      45.190
  H     -352.104     174.119      49.893
  H     -349.263     170.841      46.660
  H     -354.923     179.179      49.932
  H     -350.645     176.176      46.180
  H     -349.975     175.941      49.894
  H     -350.920     173.738      47.957
  H     -354.720     178.352      52.096
  H     -349.007     172.474      48.518
  H     -353.513     177.194      52.458
  H     -347.204     174.611      48.419
  H     -347.799     174.794      45.956
  H     -347.576     173.122      46.476
  P     -347.335     172.512      50.617
  C     -348.850     170.370      50.630
  O     -347.703     171.029      50.125
  O     -347.368     172.418      52.214
  O     -346.023     173.019      50.111
  H     -346.653     172.961      52.598
  H     -348.927     169.399      50.187
  H     -349.723     170.941      50.392
  H     -348.766     170.272      51.692

 6  7  8  9  10  11  12  13  14  15  26  29  33  34 0
 6-311+G(2d,p)
 ****
 36  38  39  40  41 0
 6-311+G(2d,p)
 ****
 1  2  3  4  5  16  17  18  19  20  21  22  23  24  25 0
 3-21G
 ****
 27  28  30  31  32  35  37  42  43  44  45  46  47 0
 3-21G
 ****
 48  49 0
 3-21G
 ****


