%nproc=1
%NoSave
%Mem=1900MB
#P OB98/GEN NMR

erre ene a

0 1
  C      150.434     -32.534    -199.927
  O      149.271     -32.544    -200.759
  P      147.891     -32.130    -200.052
  C      147.247     -30.004    -201.394
  O      146.985     -31.377    -201.142
  C      146.056     -29.141    -200.973
  O      146.396     -27.745    -200.880
  C      144.882     -29.221    -201.938
  O      144.142     -30.408    -201.706
  C      144.108     -27.955    -201.591
  O      143.241     -28.165    -200.458
  C      145.227     -26.963    -201.234
  N      144.594     -22.233    -202.945
  C      143.963     -22.892    -201.906
  N      143.053     -22.181    -201.207
  N      144.206     -24.135    -201.581
  C      145.141     -24.722    -202.363
  C      145.853     -24.167    -203.401
  C      145.572     -22.793    -203.753
  O      146.119     -22.159    -204.648
  N      146.761     -25.056    -203.918
  C      146.505     -26.182    -203.276
  N      145.577     -26.017    -202.278
  O      148.328     -30.970    -199.041
  O      147.226     -33.259    -199.339
  H      143.750     -28.586    -199.742
  H      148.260     -31.289    -198.122
  H      144.360     -21.279    -203.158
  H      146.980     -27.130    -203.476
  H      144.964     -26.362    -200.355
  H      143.465     -27.633    -202.414
  H      142.818     -21.219    -201.402
  H      145.239     -29.171    -202.973
  H      142.586     -22.642    -200.437
  H      145.741     -29.479    -199.977
  H      147.457     -29.852    -202.454
  H      148.152     -29.713    -200.850
  P      143.932     -31.411    -202.937
  C      146.289     -32.426    -203.320
  O      144.995     -32.596    -202.777
  O      144.476     -30.570    -204.187
  O      142.519     -31.841    -203.152
  H      143.861     -30.667    -204.938
  H      147.001     -33.002    -202.723
  H      146.594     -31.376    -203.319
  H      146.301     -32.803    -204.347
  H      151.287     -32.825    -200.503
  H      150.299     -33.221    -199.117
  H      150.586     -31.549    -199.538

 3  4  5  6  7  8  9  10  11  12  23  26  30  31 0
 6-311+G(2d,p)
 ****
 33  35  36  37  38 0
 6-311+G(2d,p)
 ****
 1  2  13  14  15  16  17  18  19  20  21  22  24  25 0
 3-21G
 ****
 27  28  29  32  34  39  40  41  42  43  44  45  46  47  48  49 0
 3-21G
 ****


