%nproc=1
%NoSave
%Mem=1900MB
#P OB98/GEN NMR

erre ene a

0 1
  C     -115.576    -705.934     -56.824
  O     -115.183    -704.855     -57.649
  H     -115.535    -706.855     -57.408
  H     -116.604    -705.785     -56.478
  H     -114.905    -706.039     -55.965
  P     -114.843    -703.449     -56.971
  C     -112.377    -703.839     -56.317
  O     -113.279    -703.182     -57.198
  C     -110.932    -703.676     -56.797
  O     -110.788    -704.307     -58.099
  C     -110.560    -702.199     -56.970
  O     -109.165    -701.965     -56.788
  C     -110.917    -701.935     -58.427
  O     -110.217    -700.827     -58.985
  C     -110.555    -703.272     -59.072
  N     -110.495    -703.772     -64.148
  C     -109.516    -703.269     -63.314
  N     -108.371    -702.850     -63.900
  N     -109.657    -703.173     -62.009
  C     -110.884    -703.556     -61.569
  C     -111.932    -704.041     -62.307
  C     -111.752    -704.191     -63.735
  O     -112.594    -704.600     -64.527
  N     -113.017    -704.321     -61.516
  C     -112.630    -704.002     -60.297
  N     -111.322    -703.559     -60.277
  O     -114.916    -703.756     -55.403
  O     -115.745    -702.313     -57.350
  H     -110.140    -700.149     -58.285
  H     -115.071    -702.941     -54.899
  H     -110.319    -703.851     -65.135
  H     -113.226    -704.094     -59.402
  H     -109.504    -703.307     -59.346
  H     -111.985    -701.715     -58.486
  H     -108.304    -702.726     -64.900
  H     -111.120    -701.542     -56.313
  H     -107.789    -702.208     -63.349
  H     -110.247    -704.201     -56.115
  H     -112.657    -704.896     -56.302
  H     -112.490    -703.461     -55.299
  P     -108.714    -700.688     -55.931
  C     -108.695    -701.764     -53.507
  O     -108.002    -701.170     -54.581
  O     -110.087    -700.062     -55.430
  O     -107.881    -699.700     -56.696
  H     -110.217    -699.173     -55.819
  H     -108.005    -701.998     -52.723
  H     -109.171    -702.662     -53.843
  H     -109.435    -701.084     -53.140

 6  7  8  9  10  11  12  13  14  15  26  29  33  34 0
 6-311+G(2d,p)
 ****
 36  38  39  40  41 0
 6-311+G(2d,p)
 ****
 1  2  3  4  5  16  17  18  19  20  21  22  23  24  25 0
 3-21G
 ****
 27  28  30  31  32  35  37  42  43  44  45  46  47 0
 3-21G
 ****
 48  49 0
 3-21G
 ****


