%nproc=1
%NoSave
%Mem=1900MB
#P OB98/GEN NMR

erre ene a

0 1
  C     -186.026     153.597      38.384
  O     -187.071     152.650      38.475
  H     -185.730     153.887      39.397
  H     -186.365     154.489      37.853
  H     -185.160     153.166      37.878
  P     -187.691     152.063      37.116
  C     -189.164     153.095      35.250
  O     -188.533     153.291      36.506
  C     -190.318     154.079      35.080
  O     -191.334     153.877      36.087
  C     -189.933     155.548      35.216
  O     -189.218     156.058      34.102
  C     -191.311     156.168      35.349
  O     -191.954     156.205      34.063
  C     -192.001     155.155      36.292
  N     -191.927     155.553      37.699
  C     -192.612     156.719      38.057
  O     -193.232     157.367      37.216
  N     -192.554     157.146      39.364
  C     -191.852     156.482      40.229
  N     -191.822     156.954      41.505
  C     -191.097     155.261      39.888
  C     -191.181     154.854      38.626
  O     -188.436     150.772      37.239
  O     -186.451     151.991      36.107
  H     -191.371     156.717      33.471
  H     -186.780     151.623      35.250
  H     -190.506     154.759      40.640
  H     -190.649     153.967      38.295
  H     -193.054     155.018      36.017
  H     -191.288     157.192      35.731
  H     -189.381     155.725      36.147
  H     -190.785     153.873      34.106
  H     -192.347     157.795      41.708
  H     -189.519     152.060      35.204
  H     -191.243     156.545      42.226
  H     -188.447     153.260      34.440
  P     -188.124     157.200      34.400
  C     -188.208     159.511      35.614
  O     -188.925     158.439      35.021
  O     -187.712     157.693      32.937
  O     -186.948     156.755      35.213
  H     -186.877     157.270      32.653
  H     -188.898     160.246      35.974
  H     -187.562     159.955      34.885
  H     -187.623     159.141      36.430

 6  7  8  9  10  11  12  13  14  15  16  26  30  31  32  33  35 0
 6-311+G(2d,p)
 ****
 37  38 0
 6-311+G(2d,p)
 ****
 1  2  3  4  5  17  18  19  20  21  22  23  24  25 0
 3-21G
 ****
 27  28  29  34  36  39  40  41  42  43  44  45  46 0
 3-21G
 ****


