%nproc=1
%NoSave
%Mem=1900MB
#P OB98/GEN NMR

erre ene a

0 1
  C     -389.865    -474.369    -896.050
  O     -388.623    -474.959    -896.380
  H     -390.498    -475.076    -895.510
  H     -389.686    -473.500    -895.410
  H     -390.386    -474.028    -896.960
  P     -388.674    -476.254    -897.330
  C     -389.358    -478.730    -896.990
  O     -389.094    -477.484    -896.390
  C     -388.936    -479.855    -896.050
  O     -389.726    -479.811    -894.810
  C     -389.150    -481.263    -896.610
  O     -388.102    -481.648    -897.480
  C     -389.145    -482.091    -895.320
  O     -387.774    -482.242    -894.870
  C     -389.912    -481.172    -894.360
  N     -393.699    -483.209    -891.570
  C     -392.366    -483.101    -891.350
  N     -391.418    -482.541    -892.120
  C     -391.975    -482.090    -893.280
  C     -393.335    -482.127    -893.640
  C     -394.202    -482.723    -892.720
  N     -395.547    -482.847    -892.950
  N     -393.494    -481.581    -894.890
  C     -392.291    -481.169    -895.250
  N     -391.336    -481.461    -894.320
  O     -387.130    -476.553    -897.630
  O     -389.487    -476.112    -898.580
  H     -387.794    -482.873    -894.120
  H     -387.045    -477.097    -898.440
  H     -392.005    -483.499    -890.390
  H     -392.069    -480.663    -896.190
  H     -389.527    -481.241    -893.330
  H     -389.552    -483.074    -895.440
  H     -390.145    -481.360    -897.090
  H     -387.877    -479.713    -895.770
  H     -388.797    -478.821    -897.910
  H     -396.059    -483.464    -892.330
  H     -395.908    -482.613    -893.870
  H     -390.437    -478.814    -897.220
  P     -388.434    -482.819    -898.530
  C     -389.584    -485.161    -898.290
  O     -388.851    -484.093    -897.650
  O     -386.985    -483.223    -899.100
  O     -389.383    -482.442    -899.630
  H     -387.038    -483.590    -900.000
  H     -389.786    -485.932    -897.576
  H     -389.002    -485.562    -899.093
  H     -390.507    -484.780    -898.674

 6  7  8  9  10  11  12  13  14  15  25  28  32  33  34  35 0
 6-311+G(2d,p)
 ****
 36  39  40 0
 6-311+G(2d,p)
 ****
 1  2  3  4  5  16  17  18  19  20  21  22  23  24 0
 3-21G
 ****
 26  27  29  30  31  37  38  41  42  43  44  45  46  47 0
 3-21G
 ****
 48 0
 3-21G
 ****


