%nproc=1
%NoSave
%Mem=1900MB
#P OB98/GEN NMR

erre ene a

0 1
  C      -41.840     -66.497      62.821
  O      -41.312     -65.255      62.416
  P      -42.150     -64.149      61.629
  C      -42.889     -63.815      59.141
  O      -42.504     -64.717      60.172
  C      -44.053     -64.382      58.315
  O      -45.272     -64.262      59.093
  C      -44.269     -63.584      57.017
  O      -44.547     -64.391      55.880
  C      -45.321     -62.558      57.421
  O      -46.018     -61.996      56.320
  C      -46.166     -63.355      58.413
  N      -50.242     -60.488      59.424
  C      -50.016     -61.330      58.353
  N      -50.908     -61.260      57.341
  N      -48.987     -62.138      58.273
  C      -48.121     -62.017      59.306
  C      -48.241     -61.219      60.422
  C      -49.395     -60.356      60.513
  O      -49.580     -59.510      61.388
  N      -47.136     -61.304      61.230
  C      -46.330     -62.129      60.588
  N      -46.873     -62.561      59.398
  O      -41.668     -62.739      61.736
  O      -43.582     -64.234      62.377
  H      -46.835     -61.587      56.666
  H      -43.956     -63.329      62.383
  H      -51.011     -59.827      59.389
  H      -45.340     -62.421      60.921
  H      -46.924     -63.949      57.903
  H      -44.800     -61.734      57.923
  H      -51.622     -60.544      57.310
  H      -43.349     -63.057      56.734
  H      -50.633     -61.673      56.453
  H      -43.876     -65.447      58.130
  H      -42.006     -63.679      58.505
  H      -43.153     -62.840      59.561
  P      -44.209     -64.107      54.344
  C      -45.212     -62.809      52.371
  O      -45.372     -63.196      53.723
  O      -44.423     -65.509      53.605
  O      -42.826     -63.599      54.094
  H      -43.730     -65.635      52.929
  H      -45.903     -61.987      52.156
  H      -45.451     -63.652      51.716
  H      -44.189     -62.473      52.180
  H      -41.083     -67.058      63.328
  H      -42.171     -67.041      61.961
  H      -42.667     -66.335      63.481

 3  4  5  6  7  8  9  10  11  12  23  26  30  31 0
 6-311+G(2d,p)
 ****
 33  35  36  37  38 0
 6-311+G(2d,p)
 ****
 1  2  13  14  15  16  17  18  19  20  21  22  24  25 0
 3-21G
 ****
 27  28  29  32  34  39  40  41  42  43  44  45  46  47  48  49 0
 3-21G
 ****


