%nproc=1
%NoSave
%Mem=1900MB
#P OB98/GEN NMR

erre ene a

0 1
  C        3.267     124.317      87.369
  O        3.341     125.722      87.541
  P        4.671     126.464      87.024
  C        5.063     127.653      89.300
  O        4.817     127.796      87.907
  C        5.032     129.007      90.013
  O        6.261     129.716      89.727
  C        3.861     129.902      89.602
  O        3.424     130.610      90.763
  C        4.491     130.886      88.635
  O        3.750     132.102      88.563
  C        5.905     131.019      89.222
  N        6.871     131.492      88.234
  C        7.932     132.269      88.710
  O        7.976     132.590      89.897
  N        8.883     132.705      87.823
  C        8.730     132.478      86.555
  N        9.701     132.929      85.715
  C        7.559     131.770      86.000
  C        6.691     131.291      86.887
  O        4.237     127.017      85.589
  O        5.881     125.591      86.955
  H        3.606     132.427      89.480
  H        4.996     127.029      84.978
  H        7.461     131.638      84.931
  H        5.816     130.738      86.573
  H        5.906     131.716      90.072
  H        4.532     130.447      87.630
  H        3.025     129.340      89.175
  H        5.007     128.823      91.094
  H       10.484     133.424      86.120
  H        6.056     127.215      89.444
  H        9.664     132.798      84.713
  H        4.323     126.972      89.732
  P        1.870     131.000      90.856
  C        1.694     133.511      90.353
  O        1.853     132.524      91.353
  O        1.427     130.224      92.191
  O        0.982     130.649      89.710
  H        0.469     130.329      92.328
  H        1.562     134.481      90.837
  H        0.813     133.297      89.741
  H        2.588     133.550      89.723
  H        2.335     123.959      87.755
  H        4.074     123.850      87.895
  H        3.336     124.081      86.328

 3  4  5  6  7  8  9  10  11  12  13  21  23  27  28  29  30  32 0
 6-311+G(2d,p)
 ****
 34  35 0
 6-311+G(2d,p)
 ****
 1  2  14  15  16  17  18  19  20  22  24  25  26 0
 3-21G
 ****
 31  33  36  37  38  39  40  41  42  43  44  45  46 0
 3-21G
 ****


