%nproc=1
%NoSave
%Mem=1900MB
#P OB98/GEN NMR

erre ene a

0 1
  C      162.863     632.656     600.608
  O      164.201     632.440     600.986
  P      164.588     631.716     602.366
  C      165.317     629.526     601.227
  O      164.384     630.131     602.099
  C      166.436     628.822     601.999
  O      165.859     627.798     602.873
  C      167.501     628.130     601.127
  O      168.739     628.256     601.848
  C      167.035     626.695     601.118
  O      168.063     625.785     600.745
  C      166.508     626.535     602.544
  N      165.596     625.418     602.684
  C      166.143     624.134     602.503
  O      167.339     624.019     602.192
  N      165.327     623.030     602.652
  C      164.063     623.205     602.834
  N      163.304     622.067     602.978
  C      163.422     624.532     602.905
  C      164.240     625.574     602.847
  O      163.878     632.237     603.573
  O      166.185     631.852     602.433
  H      168.765     625.805     601.449
  H      166.433     632.771     602.713
  H      162.346     624.612     603.004
  H      163.847     626.585     602.874
  H      167.334     626.411     603.250
  H      166.211     626.575     600.391
  H      167.585     628.571     600.124
  H      166.903     629.563     602.672
  H      163.793     621.186     602.941
  H      165.770     630.307     600.604
  H      162.324     622.095     603.214
  H      164.809     628.826     600.558
  P      170.139     628.337     601.066
  C      170.090     630.888     601.164
  O      170.194     629.754     600.326
  O      170.445     627.147     600.183
  O      171.237     628.494     602.227
  H      172.120     628.287     601.859
  H      170.409     631.786     600.608
  H      170.713     630.781     602.048
  H      169.036     631.014     601.468
  H      162.836     633.150     599.659
  H      162.379     633.266     601.342
  H      162.357     631.716     600.535

 3  4  5  6  7  8  9  10  11  12  13  23  27  28  29  30  32 0
 6-311+G(2d,p)
 ****
 34  35 0
 6-311+G(2d,p)
 ****
 1  2  14  15  16  17  18  19  20  21  22  24  25  26 0
 3-21G
 ****
 31  33  36  37  38  39  40  41  42  43  44  45  46 0
 3-21G
 ****


