%nproc=1
%NoSave
%Mem=1900MB
#P OB98/GEN NMR

erre ene a

0 1
  C     -304.446      55.261    -684.911
  O     -305.361      54.628    -684.010
  P     -306.810      55.312    -683.827
  C     -306.209      55.885    -681.354
  O     -307.172      55.328    -682.258
  C     -305.993      54.972    -680.144
  O     -307.275      54.585    -679.556
  C     -305.257      53.663    -680.484
  O     -304.509      53.248    -679.322
  C     -306.393      52.687    -680.689
  O     -305.949      51.330    -680.589
  C     -307.363      53.134    -679.593
  N     -310.841      49.653    -678.510
  C     -309.525      49.748    -678.099
  N     -309.075      48.806    -677.245
  N     -308.707      50.713    -678.487
  C     -309.312      51.607    -679.314
  C     -310.593      51.606    -679.787
  C     -311.479      50.527    -679.375
  O     -312.645      50.388    -679.709
  N     -310.829      52.664    -680.629
  C     -309.659      53.310    -680.652
  N     -308.718      52.723    -679.852
  O     -307.807      54.215    -684.423
  O     -306.956      56.628    -684.540
  H     -305.082      51.264    -681.070
  H     -308.158      54.518    -685.276
  H     -311.420      48.888    -678.176
  H     -309.449      54.200    -681.246
  H     -307.085      52.748    -678.600
  H     -306.831      52.821    -681.687
  H     -309.661      48.068    -676.854
  H     -304.583      53.725    -681.336
  H     -308.128      48.875    -676.897
  H     -305.432      55.523    -679.380
  H     -306.549      56.864    -681.008
  H     -305.270      56.055    -681.899
  P     -303.206      54.124    -678.961
  C     -301.450      52.206    -678.923
  O     -302.206      53.142    -678.179
  O     -303.726      55.116    -677.807
  O     -302.616      54.872    -680.112
  H     -303.174      55.922    -677.777
  H     -300.423      52.567    -678.994
  H     -301.852      52.066    -679.937
  H     -301.449      51.252    -678.398
  H     -303.531      54.707    -684.937
  H     -304.250      56.259    -684.578
  H     -304.873      55.290    -685.892

 3  4  5  6  7  8  9  10  11  12  23  26  30  31 0
 6-311+G(2d,p)
 ****
 33  35  36  37  38 0
 6-311+G(2d,p)
 ****
 1  2  13  14  15  16  17  18  19  20  21  22  24  25 0
 3-21G
 ****
 27  28  29  32  34  39  40  41  42  43  44  45  46  47  48  49 0
 3-21G
 ****


