%nproc=1
%NoSave
%Mem=1900MB
#P OB98/GEN NMR

erre ene a

0 1
  C       68.205    -826.993       1.624
  O       68.372    -827.152       0.208
  P       67.633    -826.070      -0.721
  C       69.712    -825.440      -2.154
  O       68.407    -826.026      -2.121
  C       70.576    -826.024      -3.278
  O       70.755    -827.451      -3.049
  C       69.996    -825.875      -4.696
  O       71.060    -825.615      -5.599
  C       69.438    -827.262      -5.002
  O       69.328    -827.492      -6.404
  C       70.484    -828.116      -4.287
  N       71.453    -833.051      -4.976
  C       72.224    -831.946      -5.278
  N       73.420    -832.185      -5.887
  N       71.875    -830.716      -5.025
  C       70.658    -830.620      -4.406
  C       69.800    -831.640      -4.056
  C       70.199    -832.993      -4.368
  O       69.544    -834.004      -4.179
  N       68.681    -831.155      -3.439
  C       68.844    -829.838      -3.435
  N       70.025    -829.476      -4.025
  O       68.011    -824.681      -0.017
  O       66.142    -826.254      -0.810
  H       68.631    -826.887      -6.718
  H       67.188    -824.184       0.205
  H       71.773    -833.979      -5.214
  H       68.127    -829.121      -3.046
  H       71.407    -828.182      -4.871
  H       68.453    -827.350      -4.543
  H       73.786    -833.112      -6.042
  H       69.237    -825.084      -4.785
  H       74.025    -831.390      -6.068
  H       71.569    -825.549      -3.216
  H       70.200    -825.627      -1.191
  H       69.605    -824.357      -2.280
  P       70.854    -824.380      -6.629
  C       73.345    -823.608      -6.328
  O       72.326    -824.082      -7.218
  O       70.583    -823.143      -5.658
  O       69.779    -824.591      -7.620
  H       70.048    -822.466      -6.099
  H       73.058    -823.703      -5.278
  H       73.541    -822.547      -6.562
  H       74.250    -824.184      -6.512
  H       68.739    -827.767       2.135
  H       67.165    -827.055       1.870
  H       68.586    -826.039       1.923

 3  4  5  6  7  8  9  10  11  12  23  26  30  31  33  0
 6-311+G(2d,p)
 ****
 35  36  37  38 0
 6-311+G(2d,p)
 ****
 1  2  13  14  15  16  17  18  19  20  21  22  24  25  27  28  29 0
 3-21G
 ****
 32  34  39  40  41  42  43  44  45  46  47  48  49 0
 3-21G
 ****


