%nproc=1
%NoSave
%Mem=1900MB
#P OB98/GEN NMR

erre ene a

0 1
  C      215.528    -779.676    -798.605
  O      215.244    -781.055    -798.517
  H      215.297    -779.301    -799.607
  H      214.913    -779.142    -797.878
  H      216.584    -779.497    -798.369
  P      215.971    -781.999    -799.582
  C      217.783    -783.250    -798.196
  O      216.482    -783.303    -798.770
  C      217.911    -784.300    -797.095
  O      217.214    -783.865    -795.905
  C      217.313    -785.664    -797.434
  O      218.163    -786.428    -798.269
  C      217.196    -786.270    -796.043
  O      218.468    -786.782    -795.625
  C      216.810    -785.049    -795.171
  N      213.186    -785.725    -791.612
  C      214.529    -785.907    -791.575
  N      215.419    -785.718    -792.557
  C      214.820    -785.267    -793.694
  C      213.465    -785.055    -793.863
  C      212.619    -785.308    -792.772
  N      211.254    -785.130    -792.813
  N      213.215    -784.592    -795.144
  C      214.390    -784.561    -795.730
  N      215.393    -784.970    -794.887
  O      217.339    -781.220    -799.914
  O      215.204    -782.281    -800.834
  H      218.335    -787.197    -794.752
  H      217.559    -781.344    -800.856
  H      214.935    -786.228    -790.621
  H      214.571    -784.220    -796.747
  H      217.368    -785.047    -794.221
  H      216.480    -787.087    -795.994
  H      216.315    -785.551    -797.876
  H      218.984    -784.390    -796.854
  H      217.953    -782.256    -797.763
  H      210.735    -785.123    -791.957
  H      210.849    -784.803    -793.690
  H      218.529    -783.422    -798.975
  P      217.503    -787.572    -799.181
  C      216.949    -785.760    -800.973
  O      217.556    -787.023    -800.689
  O      215.946    -787.450    -798.809
  O      218.030    -788.940    -798.950
  H      215.490    -788.309    -798.960
  H      217.066    -785.534    -802.012
  H      217.419    -784.998    -800.387
  H      215.907    -785.803    -800.733

 6  7  8  9  10  11  12  13  14  15  25  28  32  33  34  35 0
 6-311+G(2d,p)
 ****
 36  39  40 0
 6-311+G(2d,p)
 ****
 1  2  3  4  5  16  17  18  19  20  21  22  23  24 0
 3-21G
 ****
 26  27  29  30  31  37  38  41  42  43  44  45  46  47  48 0
 3-21G
 ****


