%nproc=1
%NoSave
%Mem=1900MB
#P OB98/GEN NMR

erre ene a

0 1
  C      179.163    -216.182     451.930
  O      178.898    -214.830     451.539
  P      179.920    -213.987     450.637
  C      177.797    -212.680     449.975
  O      179.205    -212.619     450.187
  C      177.127    -211.329     450.233
  O      177.598    -210.748     451.465
  C      177.379    -210.283     449.153
  O      176.556    -210.514     448.028
  C      177.086    -208.991     449.910
  O      175.671    -208.748     449.966
  C      177.627    -209.316     451.310
  N      181.775    -209.725     454.273
  C      180.600    -210.389     454.272
  N      179.543    -210.218     453.450
  C      179.795    -209.257     452.540
  C      180.944    -208.495     452.422
  C      181.974    -208.755     453.349
  N      183.162    -208.066     453.358
  N      180.828    -207.591     451.390
  C      179.633    -207.824     450.877
  N      178.971    -208.819     451.537
  O      180.524    -214.760     449.508
  O      181.054    -213.494     451.651
  H      175.231    -209.599     450.142
  H      181.897    -213.374     451.176
  H      180.493    -211.156     455.030
  H      179.210    -207.294     450.028
  H      176.987    -208.902     452.097
  H      177.552    -208.112     449.453
  H      178.436    -210.294     448.855
  H      176.046    -211.504     450.345
  H      177.378    -213.431     450.656
  H      183.837    -208.292     454.077
  H      183.298    -207.312     452.701
  H      177.610    -213.000     448.945
  P      177.118    -211.318     446.766
  C      175.193    -212.945     446.286
  O      175.855    -211.767     445.884
  O      178.085    -212.417     447.081
  O      177.800    -210.189     445.860
  H      178.536    -210.578     445.357
  H      175.748    -213.814     445.921
  H      174.191    -212.954     445.843
  H      175.104    -212.996     447.370
  H      178.352    -216.547     452.525
  H      180.068    -216.218     452.500
  H      179.268    -216.792     451.057

 3  4  5  6  7  8  9  10  11  12  22  25  29  30  31  32 0
 6-311+G(2d,p)
 ****
 33  36  37 0
 6-311+G(2d,p)
 ****
 1  2  13  14  15  16  17  18  19  20  21  23  24  26 0
 3-21G
 ****
 27  28  34  35  38  39  40  41  42  43  44  45  46  47  48 0
 3-21G
 ****


