%nproc=1
%NoSave
%Mem=1900MB
#P OB98/GEN NMR

erre ene a

0 1
  C     -932.327    -919.395    -305.094
  O     -932.617    -919.469    -306.477
  P     -933.957    -918.739    -306.986
  C     -933.064    -916.762    -308.417
  O     -933.596    -917.182    -307.159
  C     -933.435    -915.310    -308.710
  O     -934.868    -915.211    -308.864
  C     -933.011    -914.320    -307.616
  O     -932.599    -913.110    -308.254
  C     -934.294    -914.060    -306.862
  O     -934.265    -912.804    -306.181
  C     -935.337    -914.174    -307.976
  N     -936.669    -914.470    -307.465
  C     -937.343    -913.429    -306.815
  O     -936.782    -912.352    -306.629
  N     -938.621    -913.651    -306.353
  C     -939.127    -914.843    -306.428
  N     -940.396    -915.018    -305.956
  C     -938.399    -915.998    -306.993
  C     -937.203    -915.740    -307.513
  O     -934.894    -918.760    -305.691
  O     -934.611    -919.396    -308.167
  H     -933.471    -912.805    -305.592
  H     -935.836    -918.826    -305.942
  H     -938.859    -916.983    -307.007
  H     -936.606    -916.512    -307.967
  H     -935.383    -913.239    -308.557
  H     -934.451    -914.849    -306.111
  H     -932.196    -914.701    -306.998
  H     -932.985    -915.026    -309.670
  H     -940.862    -914.209    -305.558
  H     -933.486    -917.391    -309.210
  H     -940.878    -915.905    -305.974
  H     -931.976    -916.898    -308.405
  P     -931.335    -912.339    -307.644
  C     -929.409    -913.575    -308.820
  O     -930.150    -913.427    -307.628
  O     -931.725    -912.265    -306.091
  O     -930.999    -910.985    -308.184
  H     -931.056    -911.759    -305.609
  H     -928.568    -914.238    -308.627
  H     -929.039    -912.618    -309.165
  H     -930.045    -914.024    -309.594
  H     -931.416    -919.918    -304.892
  H     -933.125    -919.841    -304.538
  H     -932.221    -918.370    -304.806

 3  4  5  6  7  8  9  10  11  12  13  21  23  27  28  29  30  32 0
 6-311+G(2d,p)
 ****
 34  35 0
 6-311+G(2d,p)
 ****
 1  2  14  15  16  17  18  19  20  22  24  25  26 0
 3-21G
 ****
 31  33  36  37  38  39  40  41  42  43  44  45  46 0
 3-21G
 ****


