%nproc=1
%NoSave
%Mem=1900MB
#P OB98/GEN NMR

erre ene a

0 1
  C     -436.453     356.977      47.531
  O     -435.769     355.742      47.261
  P     -434.207     355.517      47.551
  C     -434.207     353.864      49.537
  O     -434.016     354.038      48.142
  C     -433.755     352.462      49.977
  O     -433.879     352.325      51.413
  C     -434.576     351.312      49.421
  O     -434.315     351.073      48.051
  C     -434.158     350.173      50.346
  O     -432.937     349.560      49.904
  C     -433.926     350.904      51.686
  N     -434.935     350.594      52.684
  C     -434.546     349.749      53.725
  O     -433.428     349.238      53.731
  N     -435.451     349.493      54.734
  C     -436.657     349.952      54.650
  N     -437.500     349.677      55.684
  C     -437.147     350.729      53.499
  C     -436.243     351.014      52.565
  O     -433.587     356.584      48.392
  O     -433.517     355.446      46.107
  H     -432.583     355.726      46.176
  H     -432.649     348.958      50.621
  H     -438.178     351.056      53.450
  H     -436.514     351.597      51.689
  H     -432.937     350.656      52.086
  H     -434.913     349.378      50.398
  H     -435.642     351.526      49.563
  H     -432.697     352.346      49.705
  H     -437.129     349.151      56.463
  H     -435.274     353.974      49.763
  H     -438.453     350.010      55.727
  H     -433.657     354.639      50.080
  P     -435.394     351.617      46.999
  C     -433.935     353.215      45.569
  O     -434.620     351.982      45.645
  O     -435.821     353.040      47.595
  O     -436.584     350.728      46.819
  H     -436.778     353.178      47.465
  H     -433.109     353.117      44.861
  H     -433.534     353.518      46.542
  H     -434.617     353.989      45.205
  H     -437.482     356.882      47.255
  H     -436.003     357.765      46.964
  H     -436.383     357.203      48.575

 3  4  5  6  7  8  9  10  11  12  13  24  27  28  29  30  32 0
 6-311+G(2d,p)
 ****
 34  35 0
 6-311+G(2d,p)
 ****
 1  2  14  15  16  17  18  19  20  21  22  23  25  26 0
 3-21G
 ****
 31  33  36  37  38  39  40  41  42  43  44  45  46 0
 3-21G
 ****


