%nproc=1
%NoSave
%Mem=1900MB
#P OB98/GEN NMR

erre ene a

0 1
  C     -397.555    -790.524    -372.896
  O     -397.355    -790.327    -374.298
  P     -395.962    -789.656    -374.758
  C     -395.323    -791.020    -376.889
  O     -395.132    -790.812    -375.500
  C     -395.923    -792.418    -377.130
  O     -397.303    -792.455    -376.710
  C     -395.894    -792.871    -378.599
  O     -394.625    -793.375    -378.952
  C     -397.003    -793.900    -378.613
  O     -396.539    -795.181    -378.100
  C     -398.030    -793.294    -377.643
  N     -402.354    -793.541    -380.303
  C     -401.461    -794.548    -379.929
  N     -401.794    -795.801    -380.300
  N     -400.348    -794.348    -379.284
  C     -400.130    -793.041    -379.001
  C     -400.933    -791.950    -379.301
  C     -402.184    -792.190    -379.981
  O     -403.053    -791.350    -380.222
  N     -400.383    -790.780    -378.862
  C     -399.260    -791.143    -378.245
  N     -399.083    -792.520    -378.298
  O     -395.180    -789.461    -373.382
  O     -396.089    -788.397    -375.537
  H     -396.094    -795.033    -377.245
  H     -395.280    -788.524    -373.063
  H     -403.198    -793.755    -380.782
  H     -398.553    -790.486    -377.769
  H     -398.555    -794.063    -377.044
  H     -397.387    -794.095    -379.614
  H     -402.613    -796.042    -380.831
  H     -396.180    -792.017    -379.244
  H     -401.166    -796.556    -380.048
  H     -395.358    -793.131    -376.506
  H     -394.358    -790.950    -377.403
  H     -396.002    -790.249    -377.296
  P     -393.697    -792.485    -379.909
  C     -391.424    -792.584    -378.619
  O     -392.570    -791.806    -378.995
  O     -394.663    -791.248    -380.293
  O     -393.213    -793.187    -381.124
  H     -394.495    -790.988    -381.218
  H     -390.580    -791.941    -378.497
  H     -391.210    -793.334    -379.393
  H     -391.644    -793.098    -377.674
  H     -398.512    -790.974    -372.732
  H     -397.513    -789.580    -372.394
  H     -396.789    -791.166    -372.513

 3  4  5  6  7  8  9  10  11  12  23  26  30  31 0
 6-311+G(2d,p)
 ****
 33  35  36  37  38 0
 6-311+G(2d,p)
 ****
 1  2  13  14  15  16  17  18  19  20  21  22  24  25 0
 3-21G
 ****
 27  28  29  32  34  39  40  41  42  43  44  45  46  47  48  49 0
 3-21G
 ****


