%nproc=1
%NoSave
%Mem=1900MB
#P OB98/GEN NMR

erre ene a

0 1
  C       70.740    -235.890      47.881
  O       70.227    -237.220      47.808
  P       68.794    -237.523      48.459
  C       67.747    -237.237      50.803
  O       68.938    -237.474      50.057
  C       67.957    -237.593      52.285
  O       68.096    -239.034      52.407
  C       69.219    -236.997      52.919
  O       69.130    -235.709      53.519
  C       69.475    -237.987      54.056
  O       68.659    -237.646      55.193
  C       69.016    -239.324      53.481
  N       70.346    -243.994      51.862
  C       69.166    -243.483      52.277
  N       68.897    -242.229      52.693
  C       69.998    -241.461      52.640
  C       71.267    -241.842      52.236
  C       71.428    -243.179      51.833
  N       72.632    -243.702      51.421
  N       72.145    -240.782      52.324
  C       71.421    -239.784      52.794
  N       70.114    -240.142      52.986
  O       68.066    -238.705      47.916
  O       67.985    -236.170      48.153
  H       68.691    -238.410      55.798
  H       67.056    -236.395      47.948
  H       68.327    -244.175      52.279
  H       71.798    -238.794      53.006
  H       68.476    -239.932      54.217
  H       70.513    -237.968      54.399
  H       70.058    -237.018      52.214
  H       67.071    -237.287      52.855
  H       66.933    -237.840      50.392
  H       72.669    -244.683      51.192
  H       73.460    -243.125      51.450
  H       67.471    -236.191      50.657
  P       69.804    -234.424      52.839
  C       72.297    -233.704      52.495
  O       71.373    -234.547      53.147
  O       69.200    -233.115      53.215
  O       69.717    -234.771      51.278
  H       70.286    -235.508      50.998
  H       73.267    -233.794      52.992
  H       71.972    -232.661      52.539
  H       72.407    -234.014      51.450
  H       71.698    -235.850      47.405
  H       70.839    -235.602      48.907
  H       70.068    -235.221      47.386

 3  4  5  6  7  8  9  10  11  12  22  25  29  30  31  32 0
 6-311+G(2d,p)
 ****
 33  36  37 0
 6-311+G(2d,p)
 ****
 1  2  13  14  15  16  17  18  19  20  21  23  24  26 0
 3-21G
 ****
 27  28  34  35  38  39  40  41  42  43  44  45  46  47  48 0
 3-21G
 ****


