%nproc=1
%NoSave
%Mem=1900MB
#P OB98/GEN NMR

erre ene a

0 1
  C       61.599    -191.021      95.139
  O       60.322    -191.549      95.502
  P       60.323    -192.705      96.616
  C       59.244    -191.091      98.339
  O       59.185    -192.355      97.692
  C       58.323    -191.068      99.560
  O       58.620    -189.975     100.451
  C       56.849    -190.923      99.202
  O       56.326    -192.175      98.794
  C       56.259    -190.425     100.515
  O       55.973    -191.519     101.411
  C       57.387    -189.548     101.082
  N       58.376    -184.954     102.986
  C       58.595    -186.205     103.530
  N       59.185    -186.237     104.744
  N       58.268    -187.323     102.937
  C       57.688    -187.140     101.727
  C       57.444    -185.955     101.071
  C       57.810    -184.725     101.740
  O       57.657    -183.596     101.290
  N       56.896    -186.172      99.832
  C       56.697    -187.477      99.797
  N       57.218    -188.118     100.894
  O       61.693    -192.456      97.404
  O       60.260    -194.082      96.043
  H       56.800    -192.002     101.597
  H       62.324    -193.175      97.207
  H       58.641    -184.124     103.490
  H       56.206    -188.007      98.995
  H       57.508    -189.700     102.162
  H       55.313    -189.900     100.362
  H       59.466    -185.415     105.258
  H       56.723    -190.164      98.421
  H       59.362    -187.144     105.158
  H       58.480    -192.004     100.111
  H       58.957    -190.301      97.645
  H       60.283    -190.893      98.630
  P       55.438    -192.215      97.460
  C       57.197    -192.684      95.608
  O       56.166    -193.200      96.429
  O       55.665    -190.760      96.829
  O       53.988    -192.483      97.687
  H       54.812    -190.401      96.522
  H       57.906    -193.486      95.386
  H       57.731    -191.863      96.096
  H       56.764    -192.324      94.670
  H       61.473    -190.263      94.394
  H       62.212    -191.806      94.748
  H       62.069    -190.598      96.002

 3  4  5  6  7  8  9  10  11  12  23  26  30  31 0
 6-311+G(2d,p)
 ****
 33  35  36  37  38 0
 6-311+G(2d,p)
 ****
 1  2  13  14  15  16  17  18  19  20  21  22  24  25 0
 3-21G
 ****
 27  28  29  32  34  39  40  41  42  43  44  45  46  47  48  49 0
 3-21G
 ****


