%nproc=1
%NoSave
%Mem=1900MB
#P OB98/GEN NMR

erre ene a

0 1
  C      -11.161      71.152     869.968
  O      -10.359      72.044     869.223
  H      -10.510      70.536     870.606
  H      -11.723      70.483     869.306
  H      -11.856      71.701     870.612
  P      -11.056      72.866     868.034
  C      -10.388      75.080     869.193
  O      -10.311      74.289     867.998
  C       -9.277      76.139     869.228
  O       -7.985      75.500     869.406
  C       -9.149      76.937     867.924
  O      -10.240      77.816     867.698
  C       -7.736      77.495     868.028
  O       -7.652      78.718     868.764
  C       -7.009      76.373     868.800
  N       -6.070      75.632     867.947
  C       -4.734      75.959     868.073
  O       -4.317      76.817     868.853
  N       -3.867      75.274     867.259
  C       -4.217      74.368     866.301
  O       -3.400      73.820     865.575
  C       -5.672      74.082     866.191
  C       -6.516      74.718     866.996
  O      -12.553      72.963     868.095
  O      -10.510      72.146     866.715
  H       -7.730      78.484     869.712
  H      -11.061      72.377     865.930
  H       -2.880      75.490     867.353
  H       -5.980      73.364     865.440
  H       -7.577      74.530     866.926
  H       -6.427      76.799     869.639
  H       -7.315      77.692     867.040
  H       -9.150      76.229     867.091
  H       -9.451      76.799     870.087
  H      -10.270      74.405     870.050
  H      -11.368      75.559     869.256
  P      -10.224      78.906     866.527
  C      -11.771      77.468     864.985
  O      -11.576      78.721     865.659
  O       -8.937      79.117     865.806
  O      -10.540      80.262     867.350
  H      -10.062      80.992     866.925
  H      -12.700      77.489     864.455
  H      -11.788      76.675     865.704
  H      -10.970      77.306     864.294

 6  7  8  9  10  11  12  13  14  15  16  26  31  32  33  34  35 0
 6-311+G(2d,p)
 ****
 36  37 0
 6-311+G(2d,p)
 ****
 1  2  3  4  5  17  18  19  20  21  22  23  24  25 0
 3-21G
 ****
 27  28  29  30  38  39  40  41  42  43  44  45 0
 3-21G
 ****


