%nproc=1
%NoSave
%Mem=1900MB
#P OB98/GEN NMR

erre ene a

0 1
  C      759.886    -895.460     249.901
  O      758.940    -896.510     249.954
  H      759.920    -895.070     248.877
  H      760.882    -895.830     250.161
  H      759.611    -894.650     250.576
  P      758.709    -897.250     251.355
  C      756.196    -896.630     251.417
  O      757.477    -896.470     252.019
  C      755.266    -897.390     252.351
  O      754.925    -896.600     253.515
  C      753.906    -897.780     251.745
  O      753.987    -898.840     250.801
  C      753.157    -898.160     252.999
  O      753.599    -899.460     253.437
  C      753.610    -897.050     253.974
  N      752.667    -895.930     254.021
  C      751.445    -896.170     254.662
  O      751.200    -897.260     255.141
  N      750.522    -895.150     254.717
  C      750.781    -894.000     254.148
  N      749.827    -893.050     254.238
  C      752.040    -893.730     253.451
  C      752.934    -894.730     253.427
  O      759.909    -897.400     252.222
  O      758.023    -898.650     250.958
  H      753.204    -899.620     254.311
  H      757.875    -899.160     251.793
  H      752.201    -892.760     252.966
  H      753.889    -894.600     252.925
  H      753.742    -897.460     254.982
  H      752.076    -898.230     252.850
  H      753.420    -896.890     251.286
  H      755.810    -898.280     252.715
  H      748.964    -893.280     254.718
  H      756.321    -897.160     250.470
  H      749.917    -892.150     253.756
  H      755.752    -895.640     251.219
  P      753.079    -898.720     249.470
  C      755.057    -897.790     248.034
  O      753.769    -897.560     248.578
  O      751.746    -898.020     250.029
  O      752.826    -900.000     248.757
  H      751.055    -898.690     250.176
  H      755.367    -896.932     247.475
  H      755.024    -898.643     247.389
  H      755.752    -897.969     248.827

 6  7  8  9  10  11  12  13  14  15  16  26  30  31  32  33  35 0
 6-311+G(2d,p)
 ****
 37  38 0
 6-311+G(2d,p)
 ****
 1  2  3  4  5  17  18  19  20  21  22  23  24  25 0
 3-21G
 ****
 27  28  29  34  36  39  40  41  42  43  44  45  46 0
 3-21G
 ****


