%nproc=1
%NoSave
%Mem=1900MB
#P OB98/GEN NMR

erre ene a

0 1
  C      357.171     606.191     211.423
  O      358.365     606.955     211.195
  P      359.676     606.191     210.692
  C      359.893     606.406     208.123
  O      360.243     606.947     209.392
  C      360.544     607.217     206.985
  O      360.459     606.456     205.754
  C      359.873     608.562     206.692
  O      360.322     609.710     207.409
  C      360.278     608.777     205.229
  O      361.598     609.351     205.173
  C      360.301     607.367     204.659
  N      358.028     607.556     200.065
  C      359.255     607.960     200.492
  N      359.770     607.879     201.735
  C      358.911     607.286     202.570
  C      357.632     606.824     202.279
  C      357.194     606.982     200.961
  N      355.947     606.581     200.527
  N      357.048     606.291     203.416
  C      357.939     606.446     204.368
  N      359.089     607.035     203.913
  O      359.566     604.707     210.563
  O      360.758     606.593     211.806
  H      362.179     608.766     205.704
  H      361.337     605.821     211.980
  H      359.887     608.423     199.737
  H      357.801     606.155     205.401
  H      361.144     607.211     203.967
  H      359.613     609.483     204.715
  H      358.778     608.477     206.767
  H      361.604     607.370     207.221
  H      358.804     606.415     208.001
  H      355.685     606.776     199.586
  H      355.287     606.198     201.196
  H      360.212     605.354     208.116
  P      359.511     610.260     208.687
  C      361.112     610.206     210.746
  O      360.607     610.924     209.651
  O      358.625     609.257     209.353
  O      358.738     611.526     208.083
  H      359.317     612.262     207.836
  H      362.002     610.739     211.143
  H      361.410     609.204     210.454
  H      360.356     610.159     211.533
  H      356.389     606.842     211.754
  H      357.359     605.450     212.172
  H      356.875     605.712     210.513

 3  4  5  6  7  8  9  10  11  12  22  25  29  30  31  32 0
 6-311+G(2d,p)
 ****
 33  36  37 0
 6-311+G(2d,p)
 ****
 1  2  13  14  15  16  17  18  19  20  21  23  24  26 0
 3-21G
 ****
 27  28  34  35  38  39  40  41  42  43  44  45  46  47  48 0
 3-21G
 ****


