%nproc=1
%NoSave
%Mem=1900MB
#P OB98/GEN NMR

erre ene a

0 1
  C      110.919     210.548     222.546
  O      112.105     210.106     223.176
  H      110.636     211.535     222.922
  H      111.098     210.622     221.469
  H      110.108     209.836     222.723
  P      112.064     209.967     224.774
  C      111.161     207.549     224.445
  O      110.986     208.813     225.067
  C      110.280     206.518     225.140
  O      110.324     205.262     224.424
  C      110.713     206.199     226.566
  O      110.245     207.152     227.504
  C      110.046     204.850     226.769
  O      108.641     205.035     227.014
  C      110.265     204.186     225.400
  N      112.587     199.860     226.849
  C      111.331     200.319     227.045
  N      110.785     201.472     226.607
  C      111.673     202.179     225.892
  C      112.985     201.837     225.605
  C      113.444     200.614     226.124
  N      114.732     200.158     225.954
  N      113.593     202.828     224.859
  C      112.659     203.740     224.687
  N      111.491     203.408     225.321
  O      111.309     211.294     225.254
  O      113.382     209.767     225.445
  H      108.559     205.490     227.874
  H      111.426     211.423     226.214
  H      110.682     199.676     227.632
  H      112.780     204.658     224.127
  H      109.441     203.523     225.116
  H      110.453     204.301     227.622
  H      111.800     206.073     226.636
  H      109.244     206.878     225.115
  H      112.212     207.252     224.529
  H      115.007     199.347     226.487
  H      115.416     200.776     225.544
  H      110.892     207.624     223.387
  P      110.789     207.037     229.012
  C      113.233     207.425     228.219
  O      112.323     206.572     228.904
  O      110.048     205.732     229.562
  O      110.530     208.237     229.859
  H      109.870     205.810     230.518
  H      114.209     206.987     228.229
  H      113.265     208.377     228.706
  H      112.909     207.553     227.207

 6  7  8  9  10  11  12  13  14  15  25  28  32  33  34  35 0
 6-311+G(2d,p)
 ****
 36  39  40 0
 6-311+G(2d,p)
 ****
 1  2  3  4  5  16  17  18  19  20  21  22  23  24 0
 3-21G
 ****
 26  27  29  30  31  37  38  41  42  43  44  45  46  47 0
 3-21G
 ****
 48 0
 3-21G
 ****


