%nproc=1
%NoSave
%Mem=1900MB
#P OB98/GEN NMR

erre ene a

0 1
  C      163.091    1067.038    -896.910
  O      164.468    1066.946    -896.610
  H      162.535    1067.142    -895.980
  H      162.758    1066.116    -897.400
  H      162.899    1067.901    -897.540
  P      165.527    1066.733    -897.790
  C      167.166    1068.200    -896.450
  O      166.982    1066.954    -897.120
  C      168.634    1068.427    -896.080
  O      168.906    1067.771    -894.810
  C      169.610    1067.875    -897.120
  O      170.627    1068.846    -897.400
  C      170.249    1066.670    -896.420
  O      171.536    1066.335    -896.920
  C      170.208    1067.145    -894.940
  N      170.394    1066.048    -894.010
  C      171.736    1065.737    -893.700
  O      172.647    1066.388    -894.210
  N      171.969    1064.684    -892.870
  C      170.990    1063.955    -892.420
  N      171.310    1062.908    -891.630
  C      169.586    1064.238    -892.740
  C      169.347    1065.283    -893.540
  O      165.266    1067.546    -899.020
  O      165.512    1065.151    -898.080
  H      172.000    1065.790    -896.250
  H      165.854    1064.986    -898.990
  H      168.791    1063.604    -892.380
  H      168.342    1065.570    -893.840
  H      170.968    1067.907    -894.760
  H      169.583    1065.797    -896.530
  H      169.132    1067.574    -898.050
  H      168.790    1069.506    -895.920
  H      172.309    1062.740    -891.430
  H      166.525    1068.213    -895.550
  H      170.634    1062.249    -891.250
  H      166.841    1069.008    -897.130
  P      170.433    1069.699    -898.740
  C      171.176    1071.912    -897.580
  O      171.372    1070.996    -898.660
  O      168.938    1070.316    -898.560
  O      170.529    1068.905    -900.000
  H      168.330    1069.902    -899.200
  H      171.874    1072.719    -897.666
  H      171.329    1071.405    -896.650
  H      170.179    1072.298    -897.616

 6  7  8  9  10  11  12  13  14  15  16  26  30  31  32  33  35 0
 6-311+G(2d,p)
 ****
 37  38 0
 6-311+G(2d,p)
 ****
 1  2  3  4  5  17  18  19  20  21  22  23  24  25 0
 3-21G
 ****
 27  28  29  34  36  39  40  41  42  43  44  45  46 0
 3-21G
 ****


