%nproc=1
%NoSave
%Mem=1900MB
#P OB98/GEN NMR

erre ene a

0 1
  C       52.098      74.787      92.036
  O       52.763      73.587      91.692
  H       51.677      75.253      91.141
  H       51.285      74.551      92.726
  H       52.790      75.477      92.528
  P       54.019      73.723      90.702
  C       54.312      74.175      88.164
  O       53.412      74.067      89.257
  C       53.701      75.040      87.066
  O       53.451      76.370      87.561
  C       54.581      75.219      85.833
  O       54.514      74.096      84.968
  C       53.940      76.446      85.203
  O       52.748      76.061      84.494
  C       53.571      77.283      86.438
  N       55.733      81.659      84.906
  C       54.716      80.930      84.399
  N       54.183      79.786      84.875
  C       54.798      79.414      86.009
  C       55.833      80.064      86.659
  C       56.313      81.239      86.058
  N       57.401      81.941      86.552
  N       56.213      79.369      87.791
  C       55.433      78.309      87.810
  N       54.558      78.295      86.759
  O       54.520      72.207      90.556
  O       55.109      74.622      91.178
  H       53.039      75.652      83.658
  H       55.259      72.054      91.172
  H       54.274      81.314      83.486
  H       55.469      77.528      88.557
  H       52.604      77.784      86.324
  H       54.593      76.953      84.488
  H       55.615      75.457      86.108
  H       52.733      74.601      86.791
  H       54.522      73.178      87.764
  H       57.921      82.439      85.834
  H       57.944      81.438      87.243
  H       55.246      74.619      88.522
  P       55.888      73.545      84.352
  C       57.330      74.145      82.290
  O       56.302      74.561      83.179
  O       55.425      72.228      83.570
  O       56.954      73.236      85.346
  H       55.932      71.457      83.892
  H       57.504      74.911      81.563
  H       57.031      73.245      81.795
  H       58.229      73.966      82.843

 6  7  8  9  10  11  12  13  14  15  25  28  32  33  34  35 0
 6-311+G(2d,p)
 ****
 36  39  40 0
 6-311+G(2d,p)
 ****
 1  2  3  4  5  16  17  18  19  20  21  22  23  24 0
 3-21G
 ****
 26  27  29  30  31  37  38  41  42  43  44  45  46  47  48 0
 3-21G
 ****


