%nproc=1
%NoSave
%Mem=1900MB
#P OB98/GEN NMR

erre ene a

0 1
  C      605.797     363.594     143.263
  O      606.775     362.587     143.101
  H      605.948     364.082     144.228
  H      604.797     363.148     143.247
  H      605.884     364.341     142.469
  P      606.864     361.909     141.652
  C      605.792     359.749     140.626
  O      605.689     360.811     141.558
  C      605.113     358.496     141.184
  O      605.809     358.013     142.351
  C      603.698     358.726     141.679
  O      602.767     358.903     140.629
  C      603.461     357.445     142.473
  O      603.037     356.369     141.632
  C      604.872     357.166     143.054
  N      604.915     357.372     144.490
  C      604.631     356.229     145.273
  O      604.383     355.160     144.720
  N      604.595     356.357     146.633
  C      604.794     357.533     147.170
  N      604.704     357.593     148.531
  C      605.098     358.744     146.390
  C      605.144     358.593     145.070
  O      608.190     361.017     141.775
  O      606.879     362.873     140.510
  H      602.152     356.619     141.293
  H      608.216     360.464     142.568
  H      605.264     359.682     146.895
  H      605.356     359.438     144.425
  H      605.167     356.127     142.846
  H      602.691     357.576     143.236
  H      603.668     359.570     142.373
  H      605.143     357.711     140.407
  H      604.446     356.743     149.019
  H      606.838     359.537     140.390
  H      604.764     358.457     149.054
  H      605.305     360.066     139.699
  P      601.572     359.947     140.738
  C      599.027     359.828     141.183
  O      600.264     359.115     141.179
  O      601.355     360.822     139.549
  O      601.912     360.748     142.088
  H      601.974     360.204     142.884
  H      598.239     359.173     141.491
  H      598.823     360.193     140.198
  H      599.092     360.652     141.863

 6  7  8  9  10  11  12  13  14  15  16  26  30  31  32  33  35 0
 6-311+G(2d,p)
 ****
 37  38 0
 6-311+G(2d,p)
 ****
 1  2  3  4  5  17  18  19  20  21  22  23  24  25 0
 3-21G
 ****
 27  28  29  34  36  39  40  41  42  43  44  45  46 0
 3-21G
 ****


