%nproc=1
%NoSave
%Mem=1900MB
#P OB98/GEN NMR

erre ene a

0 1
  C     -403.362     127.293     119.809
  O     -402.884     128.614     120.017
  P     -402.410     129.010     121.499
  C     -400.236     130.346     120.854
  O     -400.818     129.181     121.416
  C     -399.054     129.965     119.956
  O     -399.471     128.978     118.989
  C     -398.482     131.116     119.142
  O     -397.666     131.968     119.931
  C     -397.740     130.361     118.045
  O     -396.466     129.904     118.530
  C     -398.676     129.161     117.797
  N     -399.521     129.325     116.617
  C     -399.204     128.533     115.517
  O     -398.271     127.732     115.514
  N     -399.991     128.707     114.410
  C     -400.995     129.621     114.273
  O     -401.638     129.765     113.242
  C     -401.264     130.451     115.457
  C     -400.528     130.268     116.556
  O     -402.633     127.622     122.260
  O     -403.158     130.169     122.062
  H     -402.561     126.861     121.657
  H     -396.654     129.269     119.247
  H     -399.792     128.128     113.608
  H     -402.049     131.193     115.385
  H     -400.705     130.879     117.432
  H     -398.091     128.241     117.678
  H     -397.552     130.978     117.160
  H     -399.297     131.700     118.698
  H     -398.277     129.516     120.589
  H     -399.887     130.994     121.663
  H     -400.997     130.882     120.277
  P     -397.954     133.548     119.818
  C     -399.220     133.552     122.104
  O     -399.245     133.832     120.720
  O     -398.490     133.657     118.313
  O     -396.762     134.396     120.114
  H     -399.098     132.939     118.077
  H     -400.015     134.125     122.590
  H     -398.262     133.832     122.550
  H     -399.403     132.488     122.267
  H     -403.640     127.172     118.783
  H     -404.214     127.120     120.433
  H     -402.592     126.592     120.055

 3  4  5  6  7  8  9  10  11  12  13  24  28  29  30  31  32 0
 6-311+G(2d,p)
 ****
 33  34 0
 6-311+G(2d,p)
 ****
 1  2  14  15  16  17  18  19  20  21  22  23  25  26  27 0
 3-21G
 ****
 35  36  37  38  39  40  41  42  43  44  45 0
 3-21G
 ****


