%nproc=1
%NoSave
%Mem=1900MB
#P OB98/GEN NMR

erre ene a

0 1
  C     -152.730    -388.992     623.257
  O     -153.663    -388.425     624.156
  H     -153.278    -389.504     622.462
  H     -152.100    -389.717     623.779
  H     -152.105    -388.211     622.812
  P     -153.078    -387.480     625.308
  C     -154.287    -388.788     627.239
  O     -153.062    -388.336     626.670
  C     -154.016    -389.497     628.562
  O     -153.288    -390.726     628.361
  C     -153.133    -388.706     629.516
  O     -153.792    -387.592     630.069
  C     -152.784    -389.789     630.528
  O     -153.862    -389.997     631.454
  C     -152.604    -391.022     629.603
  N     -151.202    -391.354     629.388
  C     -150.632    -392.224     630.331
  O     -151.305    -392.662     631.260
  N     -149.302    -392.547     630.201
  C     -148.606    -392.066     629.217
  N     -147.298    -392.415     629.153
  C     -149.180    -391.171     628.193
  C     -150.467    -390.853     628.341
  O     -154.271    -386.444     625.555
  O     -151.759    -386.844     625.003
  H     -153.746    -390.902     631.809
  H     -155.126    -386.868     625.739
  H     -148.568    -390.798     627.377
  H     -150.961    -390.199     627.628
  H     -153.101    -391.900     630.041
  H     -151.908    -389.526     631.117
  H     -152.206    -388.406     629.006
  H     -154.983    -389.741     629.022
  H     -146.938    -393.017     629.887
  H     -154.816    -389.454     626.546
  H     -146.655    -392.077     628.447
  H     -154.922    -387.909     627.402
  P     -152.976    -386.499     630.921
  C     -154.367    -386.547     633.081
  O     -153.140    -386.914     632.462
  O     -153.316    -385.077     630.617
  O     -151.446    -386.877     630.625
  H     -151.194    -387.780     630.895
  H     -154.364    -386.873     634.100
  H     -155.181    -387.009     632.562
  H     -154.480    -385.483     633.047

 6  7  8  9  10  11  12  13  14  15  16  26  30  31  32  33  35 0
 6-311+G(2d,p)
 ****
 37  38 0
 6-311+G(2d,p)
 ****
 1  2  3  4  5  17  18  19  20  21  22  23  24  25 0
 3-21G
 ****
 27  28  29  34  36  39  40  41  42  43  44  45  46 0
 3-21G
 ****


