%nproc=1
%NoSave
%Mem=1900MB
#P OB98/GEN NMR

erre ene a

0 1
  C      -42.253      16.807       9.814
  O      -40.833      16.661       9.755
  P      -40.201      16.544       8.283
  C      -39.491      18.959       7.663
  O      -39.082      17.689       8.146
  C      -38.520      20.056       8.109
  O      -38.527      20.191       9.563
  C      -37.063      19.798       7.690
  O      -36.484      21.077       7.403
  C      -36.469      19.207       8.957
  O      -35.051      19.215       8.967
  C      -37.155      20.082       9.998
  N      -34.421      20.058      14.304
  C      -34.234      20.678      13.119
  N      -35.009      20.631      12.014
  C      -36.080      19.847      12.226
  C      -36.404      19.148      13.377
  C      -35.515      19.275      14.458
  N      -35.684      18.631      15.662
  N      -37.577      18.429      13.200
  C      -37.902      18.642      11.937
  N      -37.078      19.551      11.339
  O      -41.382      17.044       7.328
  O      -39.735      15.168       7.941
  H      -34.720      18.642       9.689
  H      -41.851      16.283       6.939
  H      -33.340      21.292      13.046
  H      -38.719      18.166      11.413
  H      -36.735      21.096      10.028
  H      -36.792      18.163       9.056
  H      -36.967      19.155       6.811
  H      -38.863      21.012       7.692
  H      -40.492      19.197       8.032
  H      -34.990      18.781      16.377
  H      -36.480      18.030      15.813
  H      -39.568      18.918       6.571
  P      -35.937      21.364       5.922
  C      -37.852      22.254       4.468
  O      -36.834      22.585       5.392
  O      -36.586      20.132       5.127
  O      -34.458      21.478       5.774
  H      -37.538      20.052       5.317
  H      -38.434      23.154       4.252
  H      -38.516      21.495       4.889
  H      -37.408      21.890       3.537
  H      -42.562      16.875      10.836
  H      -42.718      15.959       9.356
  H      -42.542      17.696       9.294

 3  4  5  6  7  8  9  10  11  12  22  25  29  30  31  32 0
 6-311+G(2d,p)
 ****
 33  36  37 0
 6-311+G(2d,p)
 ****
 1  2  13  14  15  16  17  18  19  20  21  23  24  26 0
 3-21G
 ****
 27  28  34  35  38  39  40  41  42  43  44  45  46  47  48 0
 3-21G
 ****


