%nproc=1
%NoSave
%Mem=1900MB
#P OB98/GEN NMR

erre ene a

0 1
  C      551.438    -216.817     -58.875
  O      551.390    -217.965     -59.701
  H      551.268    -217.121     -57.839
  H      550.671    -216.095     -59.158
  H      552.429    -216.349     -58.941
  P      551.355    -217.750     -61.290
  C      549.749    -216.585     -62.949
  O      549.965    -216.998     -61.599
  C      548.299    -216.850     -63.365
  O      547.405    -215.968     -62.655
  C      548.029    -216.580     -64.841
  O      548.646    -217.503     -65.724
  C      546.516    -216.409     -64.875
  O      545.808    -217.638     -64.995
  C      546.236    -215.784     -63.480
  N      545.868    -214.374     -63.580
  C      544.829    -214.081     -64.474
  O      544.271    -214.946     -65.170
  N      544.489    -212.769     -64.581
  C      545.099    -211.720     -63.942
  O      544.773    -210.562     -64.115
  C      546.199    -212.093     -63.026
  C      546.518    -213.377     -62.890
  O      551.570    -218.986     -62.122
  O      552.449    -216.604     -61.541
  H      546.190    -218.117     -65.752
  H      552.720    -216.569     -62.499
  H      543.740    -212.539     -65.220
  H      546.705    -211.286     -62.502
  H      547.334    -213.673     -62.227
  H      545.412    -216.310     -62.983
  H      546.203    -215.768     -65.709
  H      548.452    -215.602     -65.093
  H      548.044    -217.880     -63.101
  H      550.419    -217.173     -63.594
  H      549.985    -215.520     -63.049
  P      548.547    -217.402     -67.306
  C      546.657    -217.290     -69.102
  O      546.983    -217.341     -67.718
  O      549.458    -218.277     -68.099
  O      549.000    -215.872     -67.564
  H      549.494    -215.838     -68.416
  H      545.594    -217.253     -69.217
  H      547.039    -218.162     -69.591
  H      547.093    -216.416     -69.539

 6  7  8  9  10  11  12  13  14  15  16  26  31  32  33  34  35 0
 6-311+G(2d,p)
 ****
 36  37 0
 6-311+G(2d,p)
 ****
 1  2  3  4  5  17  18  19  20  21  22  23  24  25 0
 3-21G
 ****
 27  28  29  30  38  39  40  41  42  43  44  45 0
 3-21G
 ****


