%nproc=1
%NoSave
%Mem=1900MB
#P OB98/GEN NMR

erre ene a

0 1
  C      726.787     519.017      -6.971
  O      727.518     519.860      -7.835
  H      726.021     519.611      -6.466
  H      727.451     518.586      -6.216
  H      726.299     518.219      -7.537
  P      728.689     519.182      -8.703
  C      727.303     519.369     -10.897
  O      727.940     518.513      -9.957
  C      726.606     518.548     -11.982
  O      727.604     517.917     -12.819
  C      725.702     517.445     -11.423
  O      724.481     517.411     -12.162
  C      726.496     516.168     -11.643
  O      725.656     515.022     -11.749
  C      727.315     516.507     -12.890
  N      728.537     515.716     -12.978
  C      728.388     514.334     -13.145
  O      727.263     513.837     -13.203
  N      729.504     513.544     -13.190
  C      730.670     514.078     -13.019
  N      731.744     513.236     -13.055
  C      730.884     515.520     -12.793
  C      729.781     516.274     -12.790
  O      729.122     517.929      -7.809
  O      729.820     520.091      -9.064
  H      726.231     514.240     -11.901
  H      729.972     517.542      -8.115
  H      731.872     515.918     -12.638
  H      729.838     517.344     -12.626
  H      726.718     516.333     -13.801
  H      727.167     516.013     -10.782
  H      725.475     517.582     -10.368
  H      726.041     519.232     -12.630
  H      731.563     512.251     -13.203
  H      728.061     520.016     -11.357
  H      732.699     513.537     -12.903
  H      726.565     519.992     -10.379
  P      723.281     518.298     -11.573
  C      722.633     519.403     -13.820
  O      723.127     519.600     -12.507
  O      723.883     518.877     -10.202
  O      722.023     517.525     -11.355
  H      723.566     518.355      -9.444
  H      722.582     520.344     -14.327
  H      721.656     518.970     -13.772
  H      723.289     518.746     -14.353

 6  7  8  9  10  11  12  13  14  15  16  26  30  31  32  33  35 0
 6-311+G(2d,p)
 ****
 37  38 0
 6-311+G(2d,p)
 ****
 1  2  3  4  5  17  18  19  20  21  22  23  24  25 0
 3-21G
 ****
 27  28  29  34  36  39  40  41  42  43  44  45  46 0
 3-21G
 ****


