%nproc=1
%NoSave
%Mem=1900MB
#P OB98/GEN NMR

erre ene a

0 1
  C     -189.831    -523.218     389.952
  O     -190.957    -522.845     389.186
  P     -191.312    -523.471     387.764
  C     -190.930    -522.841     385.258
  O     -190.744    -522.495     386.622
  C     -190.646    -521.640     384.343
  O     -191.569    -520.569     384.678
  C     -189.225    -521.079     384.575
  O     -188.544    -520.714     383.380
  C     -189.457    -519.983     385.606
  O     -188.404    -519.022     385.666
  C     -190.826    -519.449     385.199
  N     -192.117    -515.117     387.523
  C     -191.509    -515.297     386.299
  N     -191.008    -514.189     385.707
  N     -191.356    -516.463     385.728
  C     -191.794    -517.500     386.488
  C     -192.420    -517.447     387.716
  C     -192.614    -516.138     388.311
  O     -193.049    -515.942     389.444
  N     -192.670    -518.698     388.216
  C     -192.162    -519.507     387.311
  N     -191.584    -518.833     386.260
  O     -192.692    -524.019     387.594
  O     -190.284    -524.716     387.693
  H     -187.589    -519.496     385.905
  H     -190.731    -525.438     387.196
  H     -192.135    -514.198     387.945
  H     -192.154    -520.594     387.384
  H     -190.742    -518.701     384.407
  H     -189.502    -520.464     386.592
  H     -190.977    -513.293     386.192
  H     -188.579    -521.846     385.011
  H     -190.344    -514.318     384.952
  H     -190.820    -521.922     383.294
  H     -191.976    -523.149     385.152
  H     -190.300    -523.691     384.980
  P     -186.979    -520.447     383.155
  C     -185.497    -518.720     381.985
  O     -186.804    -519.042     382.408
  O     -186.531    -521.499     382.033
  O     -186.133    -520.607     384.381
  H     -185.649    -521.848     382.253
  H     -185.447    -517.646     381.751
  H     -185.248    -519.281     381.084
  H     -184.768    -518.932     382.776
  H     -189.817    -522.656     390.862
  H     -188.939    -523.019     389.395
  H     -189.884    -524.262     390.179

 3  4  5  6  7  8  9  10  11  12  23  26  30  31 0
 6-311+G(2d,p)
 ****
 33  35  36  37  38 0
 6-311+G(2d,p)
 ****
 1  2  13  14  15  16  17  18  19  20  21  22  24  25 0
 3-21G
 ****
 27  28  29  32  34  39  40  41  42  43  44  45  46  47  48  49 0
 3-21G
 ****


