%nproc=1
%NoSave
%Mem=1900MB
#P OB98/GEN NMR

erre ene a

0 1
  C      648.130    -142.308     136.323
  O      649.199    -142.257     135.400
  H      648.304    -143.130     137.021
  H      647.196    -142.497     135.785
  H      648.054    -141.374     136.888
  P      649.364    -140.915     134.542
  C      651.525    -140.474     135.916
  O      650.316    -139.939     135.393
  C      651.786    -139.931     137.321
  O      652.041    -138.498     137.227
  C      650.612    -140.134     138.303
  O      651.147    -140.417     139.603
  C      649.964    -138.766     138.335
  O      649.215    -138.548     139.528
  C      651.190    -137.865     138.203
  N      649.419    -133.527     140.007
  C      649.879    -134.655     140.661
  N      649.799    -134.652     142.010
  N      650.366    -135.697     140.048
  C      650.411    -135.561     138.700
  C      649.984    -134.503     137.931
  C      649.426    -133.358     138.621
  O      648.985    -132.344     138.091
  N      650.139    -134.774     136.592
  C      650.636    -136.004     136.558
  N      650.817    -136.518     137.811
  O      647.920    -140.235     134.669
  O      649.763    -141.109     133.119
  H      649.839    -138.536     140.281
  H      647.371    -140.480     133.899
  H      649.032    -132.759     140.527
  H      650.863    -136.560     135.662
  H      651.753    -137.779     139.143
  H      649.294    -138.646     137.475
  H      649.458    -133.875     142.559
  H      649.922    -140.930     138.008
  H      650.170    -135.456     142.508
  H      652.700    -140.394     137.711
  H      652.355    -140.185     135.260
  H      651.454    -141.567     135.933
  P      651.227    -141.947     140.067
  C      653.828    -141.999     140.146
  O      652.641    -142.550     139.594
  O      650.179    -142.675     139.099
  O      650.889    -142.164     141.503
  H      649.744    -143.408     139.577
  H      654.679    -142.502     139.736
  H      653.818    -142.123     141.209
  H      653.881    -140.957     139.909

 6  7  8  9  10  11  12  13  14  15  26  29  33  34 0
 6-311+G(2d,p)
 ****
 36  38  39  40  41 0
 6-311+G(2d,p)
 ****
 1  2  3  4  5  16  17  18  19  20  21  22  23  24  25 0
 3-21G
 ****
 27  28  30  31  32  35  37  42  43  44  45  46  47 0
 3-21G
 ****
 48  49 0
 3-21G
 ****


