%nproc=1
%NoSave
%Mem=1900MB
#P OB98/GEN NMR

erre ene a

0 1
  C      133.337       8.219     107.800
  O      132.376       7.413     108.462
  P      130.815       7.529     108.113
  C      129.328       9.512     107.430
  O      130.507       9.103     108.114
  C      129.264      11.035     107.363
  O      130.479      11.516     106.741
  C      128.126      11.619     106.526
  O      126.889      11.738     107.212
  C      128.675      13.010     106.236
  O      128.489      13.856     107.385
  C      130.164      12.732     106.016
  N      130.837      15.132     101.550
  C      130.538      15.589     102.786
  N      130.356      14.884     103.922
  C      130.558      13.575     103.701
  C      130.872      12.961     102.501
  C      131.013      13.802     101.383
  N      131.341      13.335     100.129
  N      130.980      11.594     102.665
  C      130.749      11.394     103.944
  N      130.497      12.559     104.615
  O      129.927       6.693     108.965
  O      130.728       7.147     106.563
  H      127.528      13.904     107.551
  H      129.806       6.932     106.324
  H      130.425      16.666     102.875
  H      130.749      10.426     104.427
  H      130.804      13.526     106.418
  H      128.172      13.499     105.397
  H      128.006      11.075     105.582
  H      129.234      11.425     108.388
  H      128.462       9.140     107.988
  H      131.549      14.020      99.419
  H      131.631      12.371     100.040
  H      129.311       9.071     106.431
  P      125.609      12.179     106.344
  C      125.524      14.221     104.709
  O      125.840      13.726     105.991
  O      124.297      11.853     106.965
  O      125.858      11.441     104.946
  H      126.618      11.765     104.436
  H      125.599      15.311     104.724
  H      124.504      13.947     104.426
  H      126.228      13.830     103.970
  H      134.313       7.990     108.174
  H      133.120       9.252     107.978
  H      133.303       8.023     106.749

 3  4  5  6  7  8  9  10  11  12  22  25  29  30  31  32 0
 6-311+G(2d,p)
 ****
 33  36  37 0
 6-311+G(2d,p)
 ****
 1  2  13  14  15  16  17  18  19  20  21  23  24  26 0
 3-21G
 ****
 27  28  34  35  38  39  40  41  42  43  44  45  46  47  48 0
 3-21G
 ****


