%nproc=1
%NoSave
%Mem=1900MB
#P OB98/GEN NMR

erre ene a

0 1
  C      157.582    -162.464     327.144
  O      156.871    -161.637     328.045
  H      156.934    -163.290     326.840
  H      158.473    -162.878     327.624
  H      157.870    -161.900     326.251
  P      157.615    -160.350     328.639
  C      157.271    -161.294     331.018
  O      158.200    -160.799     330.064
  C      157.991    -161.664     332.310
  O      158.878    -162.779     332.086
  C      158.845    -160.537     332.888
  O      158.038    -159.624     333.610
  C      159.790    -161.335     333.771
  O      159.109    -161.727     334.979
  C      160.071    -162.567     332.893
  N      164.912    -163.840     332.103
  C      164.083    -164.122     333.171
  N      164.641    -164.804     334.198
  N      162.832    -163.750     333.240
  C      162.433    -163.016     332.175
  C      163.167    -162.658     331.069
  C      164.534    -163.121     330.977
  O      165.297    -162.909     330.038
  N      162.443    -161.850     330.226
  C      161.263    -161.755     330.808
  N      161.211    -162.431     332.001
  O      156.815    -159.083     328.688
  O      158.924    -160.202     327.732
  H      158.873    -160.904     335.443
  H      158.764    -159.604     326.980
  H      165.875    -164.138     332.117
  H      160.417    -161.212     330.407
  H      160.229    -163.473     333.488
  H      160.677    -160.776     334.065
  H      165.645    -164.859     334.316
  H      159.435    -160.037     332.111
  H      164.066    -164.980     335.009
  H      157.236    -161.995     333.033
  H      156.787    -162.173     330.581
  H      156.502    -160.540     331.229
  P      158.587    -158.172     334.016
  C      158.285    -159.038     336.432
  O      159.118    -158.334     335.518
  O      157.620    -157.055     333.812
  O      159.943    -158.011     333.186
  H      159.812    -157.623     332.284
  H      158.757    -159.072     337.392
  H      158.128    -160.035     336.076
  H      157.343    -158.537     336.515

 6  7  8  9  10  11  12  13  14  15  26  29  33  34 0
 6-311+G(2d,p)
 ****
 36  38  39  40  41 0
 6-311+G(2d,p)
 ****
 1  2  3  4  5  16  17  18  19  20  21  22  23  24  25 0
 3-21G
 ****
 27  28  30  31  32  35  37  42  43  44  45  46  47 0
 3-21G
 ****
 48  49 0
 3-21G
 ****


