%nproc=1
%NoSave
%Mem=1900MB
#P OB98/GEN NMR

erre ene a

0 1
  C      -27.667      38.049     -12.896
  O      -28.681      38.937     -12.469
  H      -28.092      37.311     -13.580
  H      -26.900      38.619     -13.426
  H      -27.206      37.545     -12.042
  P      -29.753      38.375     -11.417
  C      -31.674      38.390     -13.162
  O      -30.877      37.615     -12.279
  C      -32.953      37.639     -13.525
  O      -33.815      37.598     -12.352
  C      -33.753      38.272     -14.674
  O      -34.292      37.222     -15.483
  C      -34.891      38.976     -13.958
  O      -36.041      39.141     -14.781
  C      -35.116      38.047     -12.769
  N      -39.568      38.445     -10.348
  C      -39.077      37.506     -11.184
  N      -37.853      37.450     -11.745
  C      -37.083      38.462     -11.310
  C      -37.441      39.489     -10.455
  C      -38.762      39.468      -9.976
  N      -39.295      40.455      -9.180
  N      -36.390      40.371     -10.294
  C      -35.426      39.897     -11.060
  N      -35.799      38.746     -11.695
  O      -30.492      39.712     -10.933
  O      -29.189      37.604     -10.272
  H      -36.755      39.543     -14.249
  H      -30.007      40.100     -10.182
  H      -39.759      36.701     -11.445
  H      -34.461      40.358     -11.212
  H      -35.719      37.168     -13.027
  H      -34.559      39.966     -13.628
  H      -33.166      38.955     -15.298
  H      -32.691      36.601     -13.764
  H      -31.105      38.585     -14.077
  H      -40.281      40.411      -8.974
  H      -38.742      41.277      -8.985
  H      -31.915      39.346     -12.687
  P      -33.321      36.559     -16.574
  C      -34.616      37.753     -18.492
  O      -33.356      37.458     -17.899
  O      -34.106      35.233     -17.006
  O      -31.955      36.246     -16.057
  H      -33.477      34.525     -17.230
  H      -34.468      38.358     -19.362
  H      -35.226      38.282     -17.789
  H      -35.102      36.841     -18.770

 6  7  8  9  10  11  12  13  14  15  25  28  32  33  34  35 0
 6-311+G(2d,p)
 ****
 36  39  40 0
 6-311+G(2d,p)
 ****
 1  2  3  4  5  16  17  18  19  20  21  22  23  24 0
 3-21G
 ****
 26  27  29  30  31  37  38  41  42  43  44  45  46  47 0
 3-21G
 ****
 48 0
 3-21G
 ****


