%nproc=1
%NoSave
%Mem=1900MB
#P OB98/GEN NMR

erre ene a

0 1
  C      515.457    -241.444      39.624
  O      514.480    -240.627      40.239
  H      516.034    -240.839      38.920
  H      514.972    -242.254      39.073
  H      516.136    -241.858      40.375
  P      513.592    -241.292      41.395
  C      514.206    -239.616      43.295
  O      513.208    -240.107      42.410
  C      513.574    -238.647      44.296
  O      513.152    -237.453      43.582
  C      512.344    -239.223      45.010
  O      512.328    -238.757      46.365
  C      511.181    -238.616      44.240
  O      509.975    -238.552      44.987
  C      511.753    -237.234      43.888
  N      511.069    -236.613      42.763
  C      510.518    -235.349      42.963
  O      510.633    -234.691      43.995
  N      509.802    -234.838      41.909
  C      509.567    -235.464      40.717
  O      508.898    -234.965      39.819
  C      510.168    -236.803      40.566
  C      510.874    -237.301      41.581
  O      514.652    -242.156      42.227
  O      512.432    -242.108      40.929
  H      514.713    -243.061      41.869
  H      510.168    -238.107      45.838
  H      509.402    -233.923      42.041
  H      509.991    -237.324      39.638
  H      511.313    -238.294      41.506
  H      511.713    -236.573      44.760
  H      510.994    -239.192      43.330
  H      512.317    -240.315      44.992
  H      514.341    -238.337      45.014
  H      514.971    -239.092      42.713
  H      514.671    -240.457      43.817
  P      512.864    -239.762      47.497
  C      514.070    -237.895      48.883
  O      513.040    -238.873      48.826
  O      514.353    -240.037      46.996
  O      512.008    -240.977      47.647
  H      514.785    -239.254      46.602
  H      514.041    -237.402      49.832
  H      513.924    -237.177      48.103
  H      515.020    -238.370      48.756

 6  7  8  9  10  11  12  13  14  15  16  27  31  32  33  34  35 0
 6-311+G(2d,p)
 ****
 36  37 0
 6-311+G(2d,p)
 ****
 1  2  3  4  5  17  18  19  20  21  22  23  24  25 0
 3-21G
 ****
 26  28  29  30  38  39  40  41  42  43  44  45 0
 3-21G
 ****


