%nproc=1
%NoSave
%Mem=1900MB
#P OB98/GEN NMR

erre ene a

0 1
  C     -724.040      56.844    -870.347
  O     -722.761      57.234    -869.844
  P     -721.569      57.583    -870.845
  C     -720.063      55.725    -869.873
  O     -720.743      56.224    -871.022
  C     -719.081      54.632    -870.269
  O     -719.833      53.481    -870.733
  C     -718.116      54.972    -871.415
  O     -716.953      55.685    -871.026
  C     -717.725      53.572    -871.884
  O     -716.731      53.036    -870.986
  C     -719.034      52.803    -871.747
  N     -719.115      50.956    -876.528
  C     -718.229      50.808    -875.513
  N     -718.268      51.343    -874.273
  C     -719.383      52.072    -874.117
  C     -720.376      52.331    -875.057
  C     -720.200      51.742    -876.319
  N     -721.119      51.885    -877.353
  N     -721.356      53.158    -874.540
  C     -720.957      53.383    -873.301
  N     -719.791      52.747    -873.003
  O     -720.741      58.775    -870.442
  O     -722.282      57.785    -872.272
  H     -715.875      53.448    -871.231
  H     -721.673      58.256    -872.877
  H     -717.377      50.159    -875.714
  H     -721.504      53.999    -872.587
  H     -718.885      51.771    -871.403
  H     -717.283      53.575    -872.888
  H     -718.651      55.489    -872.241
  H     -718.521      54.331    -869.374
  H     -720.817      55.308    -869.189
  H     -720.988      51.303    -878.176
  H     -722.003      52.311    -877.137
  H     -719.563      56.545    -869.367
  P     -716.347      56.740    -872.081
  C     -714.204      55.259    -872.434
  O     -715.346      55.890    -872.984
  O     -715.768      57.959    -871.461
  O     -717.581      57.016    -873.053
  H     -717.875      56.265    -873.598
  H     -713.759      54.611    -873.178
  H     -714.470      54.648    -871.556
  H     -713.469      56.014    -872.137
  H     -724.702      56.653    -869.528
  H     -723.936      55.957    -870.936
  H     -724.440      57.630    -870.953

 3  4  5  6  7  8  9  10  11  12  22  25  29  30  31  32 0
 6-311+G(2d,p)
 ****
 33  36  37 0
 6-311+G(2d,p)
 ****
 1  2  13  14  15  16  17  18  19  20  21  23  24  26 0
 3-21G
 ****
 27  28  34  35  38  39  40  41  42  43  44  45  46  47  48 0
 3-21G
 ****


