%nproc=1
%NoSave
%Mem=1900MB
#P OB98/GEN NMR

erre ene a

0 1
  C      227.685     266.006     -13.241
  O      226.468     265.818     -12.546
  H      228.030     265.060     -13.668
  H      227.520     266.723     -14.049
  H      228.446     266.405     -12.564
  P      226.478     264.715     -11.381
  C      225.260     264.412      -9.114
  O      225.432     265.215     -10.270
  C      224.297     265.085      -8.144
  O      224.744     266.423      -7.842
  C      222.872     265.247      -8.666
  O      222.131     264.036      -8.569
  C      222.341     266.305      -7.712
  O      221.957     265.689      -6.468
  C      223.570     267.203      -7.495
  N      221.806     272.014      -7.858
  C      221.628     271.057      -6.918
  N      222.116     269.800      -6.894
  C      222.880     269.561      -7.975
  C      223.149     270.435      -9.010
  C      222.573     271.715      -8.934
  N      222.745     272.675      -9.904
  N      223.983     269.847      -9.936
  C      224.213     268.639      -9.472
  N      223.561     268.413      -8.289
  O      227.900     264.931     -10.673
  O      226.302     263.304     -11.836
  H      221.320     264.985      -6.691
  H      228.246     264.063     -10.385
  H      221.012     271.340      -6.070
  H      224.840     267.898      -9.954
  H      223.678     267.488      -6.440
  H      221.469     266.834      -8.100
  H      222.866     265.640      -9.686
  H      224.305     264.510      -7.207
  H      226.226     264.273      -8.620
  H      222.477     273.623      -9.700
  H      223.330     272.446     -10.705
  H      224.872     263.434      -9.420
  P      220.592     264.076      -9.022
  C      219.096     262.567     -10.516
  O      220.403     262.831     -10.017
  O      220.530     265.342      -9.999
  O      219.606     264.184      -7.908
  H      219.626     265.704     -10.021
  H      219.126     261.714     -11.161
  H      218.745     263.417     -11.064
  H      218.435     262.372      -9.698

 6  7  8  9  10  11  12  13  14  15  25  28  32  33  34  35 0
 6-311+G(2d,p)
 ****
 36  39  40 0
 6-311+G(2d,p)
 ****
 1  2  3  4  5  16  17  18  19  20  21  22  23  24 0
 3-21G
 ****
 26  27  29  30  31  37  38  41  42  43  44  45  46  47  48 0
 3-21G
 ****


