%nproc=1
%NoSave
%Mem=1900MB
#P OB98/GEN NMR

erre ene a

0 1
  C      299.941     134.426     295.202
  O      299.890     134.801     296.560
  H      300.207     133.367     295.139
  H      300.710     135.008     294.685
  H      298.978     134.570     294.710
  P      299.244     136.213     296.948
  C      300.954     136.910     298.752
  O      299.626     136.481     298.486
  C      301.349     136.605     300.198
  O      300.565     137.451     301.091
  C      301.104     135.147     300.615
  O      302.096     134.806     301.594
  C      299.737     135.238     301.260
  O      299.469     134.112     302.072
  C      299.851     136.580     301.988
  N      298.547     137.126     302.363
  C      298.306     137.280     303.726
  O      299.114     136.954     304.598
  N      297.085     137.785     304.066
  C      296.073     138.081     303.199
  O      294.981     138.501     303.563
  C      296.367     137.855     301.773
  C      297.574     137.398     301.428
  O      297.796     136.376     296.630
  O      300.146     137.287     296.173
  H      300.121     134.055     302.803
  H      299.614     138.073     295.946
  H      296.898     137.915     305.051
  H      295.584     138.067     301.061
  H      297.821     137.220     300.387
  H      300.448     136.476     302.906
  H      298.955     135.285     300.498
  H      301.139     134.450     299.776
  H      302.401     136.884     300.342
  H      300.997     137.996     298.573
  H      301.644     136.414     298.060
  P      303.476     134.093     301.199
  C      303.332     132.881     303.471
  O      304.178     133.550     302.535
  O      304.367     134.919     300.332
  O      303.039     132.748     300.443
  H      303.731     132.486     299.806
  H      303.911     132.567     304.314
  H      302.890     132.026     303.004
  H      302.561     133.548     303.796

 6  7  8  9  10  11  12  13  14  15  16  26  31  32  33  34  35 0
 6-311+G(2d,p)
 ****
 36  37 0
 6-311+G(2d,p)
 ****
 1  2  3  4  5  17  18  19  20  21  22  23  24  25 0
 3-21G
 ****
 27  28  29  30  38  39  40  41  42  43  44  45 0
 3-21G
 ****


