%nproc=1
%NoSave
%Mem=1900MB
#P OB98/GEN NMR

erre ene a

0 1
  C      -70.725      56.151    -162.723
  O      -69.619      55.729    -161.951
  H      -71.367      56.782    -162.102
  H      -71.301      55.285    -163.061
  H      -70.385      56.733    -163.585
  P      -68.562      54.765    -162.680
  C      -68.195      56.766    -164.288
  O      -68.362      55.363    -164.157
  C      -67.507      57.101    -165.609
  O      -66.127      56.669    -165.589
  C      -68.149      56.458    -166.832
  O      -69.261      57.212    -167.283
  C      -66.988      56.474    -167.818
  O      -66.840      57.766    -168.440
  C      -65.790      56.165    -166.910
  N      -62.613      52.600    -168.551
  C      -62.626      53.961    -168.786
  N      -61.680      54.431    -169.631
  N      -63.492      54.782    -168.256
  C      -64.396      54.164    -167.461
  C      -64.479      52.829    -167.136
  C      -63.494      51.935    -167.707
  O      -63.389      50.732    -167.485
  N      -65.523      52.588    -166.283
  C      -66.095      53.767    -166.123
  N      -65.458      54.752    -166.833
  O      -69.399      53.424    -162.939
  O      -67.312      54.493    -161.917
  H      -66.005      57.788    -168.937
  H      -68.794      52.660    -162.915
  H      -61.909      52.022    -168.976
  H      -66.968      53.956    -165.514
  H      -64.882      56.685    -167.233
  H      -67.135      55.755    -168.626
  H      -61.224      53.830    -170.305
  H      -68.433      55.420    -166.623
  H      -61.697      55.424    -169.826
  H      -67.500      58.194    -165.708
  H      -67.577      57.131    -163.459
  H      -69.176      57.252    -164.242
  P      -70.385      56.447    -168.137
  C      -71.451      55.231    -166.097
  O      -70.738      55.110    -167.321
  O      -69.576      55.899    -169.405
  O      -71.549      57.288    -168.534
  H      -70.197      55.655    -170.118
  H      -71.608      54.259    -165.678
  H      -72.397      55.697    -166.280
  H      -70.885      55.828    -165.412

 6  7  8  9  10  11  12  13  14  15  26  29  33  34 0
 6-311+G(2d,p)
 ****
 36  38  39  40  41 0
 6-311+G(2d,p)
 ****
 1  2  3  4  5  16  17  18  19  20  21  22  23  24  25 0
 3-21G
 ****
 27  28  30  31  32  35  37  42  43  44  45  46  47 0
 3-21G
 ****
 48  49 0
 3-21G
 ****


