%nproc=1
%NoSave
%Mem=1900MB
#P OB98/GEN NMR

erre ene a

0 1
  C       53.526    -133.836    -196.646
  O       54.904    -133.679    -196.366
  P       55.894    -133.545    -197.628
  C       58.377    -132.773    -197.872
  O       57.187    -132.758    -197.102
  C       59.456    -131.944    -197.172
  O       59.042    -130.565    -197.072
  C       59.769    -132.399    -195.750
  O       60.663    -133.501    -195.769
  C       60.365    -131.132    -195.151
  O       61.749    -130.989    -195.523
  C       59.505    -130.036    -195.800
  N       57.966    -126.909    -192.137
  C       59.243    -127.179    -192.594
  N       60.249    -126.485    -192.022
  N       59.508    -128.053    -193.531
  C       58.406    -128.683    -194.002
  C       57.096    -128.513    -193.619
  C       56.812    -127.507    -192.620
  O       55.694    -127.158    -192.250
  N       56.256    -129.350    -194.308
  C       57.057    -130.003    -195.128
  N       58.368    -129.621    -194.997
  O       55.145    -132.489    -198.563
  O       56.198    -134.828    -198.333
  H       62.212    -131.835    -195.375
  H       54.653    -132.942    -199.271
  H       57.823    -126.212    -191.426
  H       56.734    -130.741    -195.844
  H       60.084    -129.132    -196.017
  H       60.336    -131.140    -194.058
  H       60.122    -125.814    -191.280
  H       58.846    -132.658    -195.222
  H       61.189    -126.673    -192.342
  H       60.359    -131.975    -197.791
  H       58.173    -132.340    -198.855
  H       58.709    -133.808    -198.003
  P       60.496    -134.600    -194.614
  C       61.410    -136.995    -194.187
  O       61.312    -135.899    -195.077
  O       58.964    -135.044    -194.742
  O       60.806    -134.109    -193.240
  H       58.601    -135.230    -193.856
  H       61.493    -137.914    -194.772
  H       60.534    -137.066    -193.534
  H       62.306    -136.879    -193.574
  H       52.982    -133.913    -195.728
  H       53.378    -134.725    -197.224
  H       53.176    -132.989    -197.198

 3  4  5  6  7  8  9  10  11  12  23  26  30  31 0
 6-311+G(2d,p)
 ****
 33  35  36  37  38 0
 6-311+G(2d,p)
 ****
 1  2  13  14  15  16  17  18  19  20  21  22  24  25 0
 3-21G
 ****
 27  28  29  32  34  39  40  41  42  43  44  45  46  47  48  49 0
 3-21G
 ****


