%nproc=1
%NoSave
%Mem=1900MB
#P OB98/GEN NMR

erre ene a

0 1
  C      128.031      73.577    -233.005
  O      127.961      73.956    -234.368
  P      126.532      74.454    -234.913
  C      125.787      75.690    -237.090
  O      126.834      75.378    -236.186
  C      126.357      76.425    -238.306
  O      126.987      77.656    -237.897
  C      127.416      75.639    -239.072
  O      126.804      74.709    -239.950
  C      128.168      76.756    -239.782
  O      127.468      77.173    -240.969
  C      128.164      77.869    -238.722
  N      132.349      80.470    -237.592
  C      131.443      80.650    -238.621
  N      131.662      81.702    -239.439
  N      130.414      79.870    -238.826
  C      130.330      78.851    -237.939
  C      131.172      78.560    -236.890
  C      132.275      79.461    -236.643
  O      133.049      79.405    -235.691
  N      130.775      77.429    -236.224
  C      129.677      77.056    -236.852
  N      129.352      77.897    -237.886
  O      126.053      75.481    -233.787
  O      125.536      73.366    -235.164
  H      127.998      77.848    -241.435
  H      125.428      75.054    -233.173
  H      133.113      81.115    -237.473
  H      129.075      76.204    -236.584
  H      128.070      78.864    -239.169
  H      129.166      76.443    -240.102
  H      132.445      82.330    -239.356
  H      128.088      75.128    -238.374
  H      131.010      81.845    -240.199
  H      125.520      76.681    -238.966
  H      125.061      76.334    -236.589
  H      125.289      74.764    -237.396
  P      127.640      73.394    -240.326
  C      127.062      71.063    -241.319
  O      126.630      72.383    -241.053
  O      127.911      72.708    -238.905
  O      128.915      73.656    -241.055
  H      128.793      72.289    -238.907
  H      126.194      70.400    -241.301
  H      127.791      70.718    -240.577
  H      127.517      71.029    -242.312
  H      129.029      73.268    -232.771
  H      127.356      72.767    -232.825
  H      127.762      74.409    -232.389

 3  4  5  6  7  8  9  10  11  12  23  26  30  31 0
 6-311+G(2d,p)
 ****
 33  35  36  37  38 0
 6-311+G(2d,p)
 ****
 1  2  13  14  15  16  17  18  19  20  21  22  24  25 0
 3-21G
 ****
 27  28  29  32  34  39  40  41  42  43  44  45  46  47  48  49 0
 3-21G
 ****


