%nproc=1
%NoSave
%Mem=1900MB
#P OB98/GEN NMR

erre ene a

0 1
  C     -895.357    1043.069    -155.280
  O     -896.457    1042.743    -156.142
  H     -895.757    1043.299    -154.287
  H     -894.837    1043.944    -155.660
  H     -894.677    1042.222    -155.205
  P     -896.107    1042.474    -157.675
  C     -897.967    1044.026    -158.659
  O     -896.567    1043.770    -158.488
  C     -898.187    1044.966    -159.819
  O     -897.627    1046.284    -159.507
  C     -897.487    1044.541    -161.126
  O     -898.227    1043.536    -161.815
  C     -897.467    1045.847    -161.889
  O     -898.697    1046.089    -162.581
  C     -897.257    1046.891    -160.780
  N     -895.877    1047.386    -160.736
  C     -895.667    1048.634    -161.343
  O     -896.577    1049.292    -161.855
  N     -894.387    1049.089    -161.363
  C     -893.307    1048.424    -160.894
  O     -892.157    1048.860    -161.004
  C     -893.567    1047.101    -160.287
  C     -894.827    1046.662    -160.235
  O     -897.187    1041.370    -158.094
  O     -894.717    1042.022    -157.945
  H     -896.757    1040.496    -158.180
  H     -898.647    1047.003    -162.932
  H     -894.237    1049.999    -161.809
  H     -892.707    1046.547    -159.916
  H     -895.027    1045.680    -159.818
  H     -897.917    1047.752    -160.909
  H     -896.657    1045.847    -162.629
  H     -896.467    1044.221    -160.921
  H     -899.267    1045.103    -159.981
  H     -898.377    1044.477    -157.744
  H     -898.467    1043.057    -158.834
  P     -897.497    1042.834    -163.081
  C     -899.337    1043.642    -164.828
  O     -897.987    1043.714    -164.364
  O     -898.317    1041.475    -163.193
  O     -896.027    1042.707    -162.931
  H     -899.227    1041.566    -162.814
  H     -899.459    1044.288    -165.672
  H     -900.000    1043.948    -164.046
  H     -899.563    1042.636    -165.113

 6  7  8  9  10  11  12  13  14  15  16  27  31  32  33  34  35 0
 6-311+G(2d,p)
 ****
 36  37 0
 6-311+G(2d,p)
 ****
 1  2  3  4  5  17  18  19  20  21  22  23  24  25 0
 3-21G
 ****
 26  28  29  30  38  39  40  41  42  43  44  45 0
 3-21G
 ****


