%nproc=1
%NoSave
%Mem=1900MB
#P OB98/GEN NMR

erre ene a

0 1
  C      -32.151    -444.198     501.610
  O      -31.145    -445.029     502.205
  P      -31.264    -445.348     503.774
  C      -32.290    -447.740     503.680
  O      -32.481    -446.369     503.998
  C      -32.216    -448.582     504.963
  O      -33.398    -448.418     505.774
  C      -32.108    -450.077     504.705
  O      -30.768    -450.461     504.421
  C      -32.544    -450.637     506.047
  O      -31.448    -450.577     506.984
  C      -33.649    -449.664     506.463
  N      -37.122    -453.372     507.133
  C      -35.853    -453.231     507.580
  N      -34.986    -452.225     507.342
  C      -35.552    -451.289     506.567
  C      -36.831    -451.293     506.036
  C      -37.640    -452.397     506.345
  N      -38.932    -452.536     505.889
  N      -37.050    -450.162     505.280
  C      -35.928    -449.477     505.366
  N      -34.991    -450.118     506.126
  O      -31.818    -443.976     504.383
  O      -29.971    -445.748     504.408
  H      -31.743    -451.043     507.793
  H      -31.447    -443.834     505.272
  H      -35.486    -454.040     508.214
  H      -35.751    -448.516     504.900
  H      -33.643    -449.455     507.542
  H      -32.849    -451.685     505.987
  H      -32.811    -450.392     503.916
  H      -31.346    -448.242     505.542
  H      -31.370    -447.864     503.102
  H      -39.458    -453.343     506.177
  H      -39.327    -451.795     505.320
  H      -33.109    -448.074     503.042
  P      -30.407    -450.788     502.887
  C      -29.003    -448.607     502.691
  O      -30.092    -449.370     502.204
  O      -31.822    -451.211     502.267
  O      -29.372    -451.848     502.711
  H      -31.689    -451.855     501.543
  H      -28.745    -447.849     501.945
  H      -28.130    -449.237     502.866
  H      -29.287    -448.103     503.622
  H      -31.941    -444.075     500.568
  H      -32.153    -443.241     502.089
  H      -33.110    -444.658     501.729

 3  4  5  6  7  8  9  10  11  12  22  25  29  30  31  32 0
 6-311+G(2d,p)
 ****
 33  36  37 0
 6-311+G(2d,p)
 ****
 1  2  13  14  15  16  17  18  19  20  21  23  24  26 0
 3-21G
 ****
 27  28  34  35  38  39  40  41  42  43  44  45  46  47  48 0
 3-21G
 ****


