%nproc=1
%NoSave
%Mem=1900MB
#P OB98/GEN NMR

erre ene a

0 1
  C      608.420    -898.260    -151.412
  O      608.154    -898.280    -150.008
  P      609.233    -898.650    -148.884
  C      609.060    -896.710    -147.139
  O      609.749    -897.290    -148.227
  C      608.028    -895.650    -147.556
  O      606.981    -896.280    -148.358
  C      607.338    -895.050    -146.343
  O      607.953    -893.990    -145.627
  C      605.921    -894.740    -146.812
  O      605.778    -893.390    -147.266
  C      605.715    -895.720    -147.979
  N      601.177    -897.880    -148.951
  C      601.727    -896.730    -149.484
  N      600.966    -896.040    -150.344
  N      602.927    -896.290    -149.183
  C      603.554    -897.030    -148.232
  C      603.103    -898.180    -147.620
  C      601.797    -898.690    -148.006
  O      601.275    -899.710    -147.577
  N      604.008    -898.640    -146.697
  C      604.987    -897.770    -146.738
  N      604.764    -896.770    -147.661
  O      610.269    -899.650    -149.291
  O      608.342    -899.320    -147.722
  H      604.888    -893.300    -147.654
  H      608.905    -900.000    -147.298
  H      600.266    -898.190    -149.233
  H      605.879    -897.810    -146.132
  H      605.328    -895.200    -148.862
  H      605.204    -894.870    -145.995
  H      599.994    -896.250    -150.527
  H      607.219    -895.860    -145.608
  H      601.273    -895.080    -150.569
  H      608.489    -894.900    -148.217
  H      609.812    -896.270    -146.481
  H      608.570    -897.490    -146.547
  P      608.893    -894.150    -144.343
  C      610.469    -892.120    -144.450
  O      610.320    -893.510    -144.699
  O      609.209    -895.710    -144.264
  O      608.287    -893.660    -143.062
  H      609.543    -895.950    -143.373
  H      611.336    -891.750    -144.999
  H      610.640    -891.950    -143.377
  H      609.580    -891.560    -144.770
  H      607.532    -897.982    -151.939
  H      608.733    -899.233    -151.730
  H      609.194    -897.551    -151.618

 3  4  5  6  7  8  9  10  11  12  23  26  30  31 0
 6-311+G(2d,p)
 ****
 33  35  36  37  38 0
 6-311+G(2d,p)
 ****
 1  2  13  14  15  16  17  18  19  20  21  22  24  25 0
 3-21G
 ****
 27  28  29  32  34  39  40  41  42  43  44  45  46  47  48  49 0
 3-21G
 ****


