%nproc=1
%NoSave
%Mem=1900MB
#P OB98/GEN NMR

erre ene a

0 1
  C      -26.345      25.707     579.994
  O      -26.473      24.672     580.950
  H      -25.818      25.313     579.120
  H      -25.772      26.544     580.401
  H      -27.332      26.053     579.678
  P      -26.985      25.063     582.422
  C      -29.421      24.818     581.594
  O      -28.460      25.669     582.218
  C      -30.637      24.608     582.501
  O      -30.236      23.963     583.729
  C      -31.312      25.901     582.932
  O      -31.975      26.583     581.888
  C      -32.090      25.469     584.166
  O      -33.376      24.933     583.866
  C      -31.181      24.357     584.745
  N      -30.517      24.778     585.973
  C      -30.428      23.818     586.975
  O      -30.895      22.682     586.872
  N      -29.819      24.220     588.133
  C      -29.346      25.475     588.390
  O      -28.848      25.782     589.468
  C      -29.491      26.454     587.302
  C      -30.058      26.068     586.159
  O      -26.070      25.948     583.214
  O      -27.269      23.650     583.112
  H      -33.839      24.808     584.715
  H      -27.332      23.738     584.094
  H      -29.738      23.535     588.868
  H      -29.129      27.458     587.477
  H      -30.179      26.774     585.340
  H      -31.777      23.464     584.976
  H      -32.245      26.303     584.852
  H      -30.531      26.588     583.287
  H      -31.342      23.946     581.984
  H      -28.940      23.851     581.408
  H      -29.727      25.246     580.635
  P      -32.173      28.168     581.863
  C      -29.835      28.736     580.877
  O      -30.723      28.856     581.986
  O      -33.300      28.721     582.677
  O      -32.535      28.414     580.309
  H      -33.170      29.159     580.271
  H      -28.917      29.238     581.100
  H      -30.283      29.179     580.012
  H      -29.639      27.701     580.687

 6  7  8  9  10  11  12  13  14  15  16  26  31  32  33  34  35 0
 6-311+G(2d,p)
 ****
 36  37 0
 6-311+G(2d,p)
 ****
 1  2  3  4  5  17  18  19  20  21  22  23  24  25 0
 3-21G
 ****
 27  28  29  30  38  39  40  41  42  43  44  45 0
 3-21G
 ****


