%nproc=1
%NoSave
%Mem=1900MB
#P OB98/GEN NMR

erre ene a

0 1
  C     -452.935    -899.390     214.739
  O     -453.198    -898.020     214.567
  H     -452.668    -899.580     215.777
  H     -452.112    -899.700     214.096
  H     -453.830    -900.000     214.501
  P     -453.896    -897.520     213.217
  C     -451.714    -896.680     212.128
  O     -452.775    -897.610     212.058
  C     -450.695    -896.940     211.003
  O     -451.411    -896.940     209.731
  C     -449.594    -895.870     210.901
  O     -448.419    -896.510     210.409
  C     -450.168    -894.930     209.853
  O     -449.170    -894.090     209.304
  C     -450.817    -895.930     208.900
  N     -451.789    -895.300     207.994
  C     -451.278    -894.650     206.882
  O     -450.068    -894.540     206.661
  N     -452.186    -894.040     206.073
  C     -453.546    -894.030     206.265
  O     -454.316    -893.450     205.511
  C     -454.028    -894.690     207.493
  C     -453.131    -895.320     208.275
  O     -454.590    -896.200     213.303
  O     -454.903    -898.700     212.828
  H     -449.525    -893.610     208.519
  H     -455.680    -898.350     212.356
  H     -451.838    -893.570     205.248
  H     -455.087    -894.670     207.684
  H     -453.460    -895.810     209.165
  H     -450.054    -896.410     208.271
  H     -450.934    -894.270     210.300
  H     -449.387    -895.370     211.853
  H     -450.273    -897.940     211.131
  H     -451.217    -896.800     213.101
  H     -452.110    -895.660     212.044
  P     -447.230    -896.990     211.375
  C     -445.274    -895.930     210.060
  O     -446.023    -895.920     211.271
  O     -446.808    -898.410     211.176
  O     -447.808    -896.770     212.859
  H     -447.382    -897.410     213.471
  H     -444.508    -895.184     210.108
  H     -445.924    -895.721     209.237
  H     -444.826    -896.893     209.925

 6  7  8  9  10  11  12  13  14  15  16  26  31  32  33  34  35 0
 6-311+G(2d,p)
 ****
 36  37 0
 6-311+G(2d,p)
 ****
 1  2  3  4  5  17  18  19  20  21  22  23  24  25 0
 3-21G
 ****
 27  28  29  30  38  39  40  41  42  43  44  45 0
 3-21G
 ****


