%nproc=1
%NoSave
%Mem=1900MB
#P OB98/GEN NMR

erre ene a

0 1
  C     -192.662     225.893     122.386
  O     -193.375     227.110     122.275
  H     -192.058     225.754     121.486
  H     -193.360     225.055     122.474
  H     -192.001     225.922     123.256
  P     -194.373     227.462     123.481
  C     -196.463     227.302     121.958
  O     -195.788     226.804     123.104
  C     -197.721     228.064     122.371
  O     -198.399     228.594     121.212
  C     -198.742     227.226     123.133
  O     -198.415     227.158     124.510
  C     -200.020     228.007     122.871
  O     -200.115     229.154     123.744
  C     -199.832     228.450     121.412
  N     -204.067     226.297     119.701
  C     -203.863     227.122     120.789
  N     -204.943     227.395     121.555
  N     -202.703     227.630     121.111
  C     -201.701     227.227     120.293
  C     -201.774     226.411     119.186
  C     -203.076     225.901     118.812
  O     -203.334     225.236     117.814
  N     -200.540     226.251     118.605
  C     -199.722     226.939     119.378
  N     -200.378     227.545     120.419
  O     -194.637     229.033     123.298
  O     -193.858     227.158     124.848
  H     -199.232     229.554     123.839
  H     -194.689     229.445     124.181
  H     -204.988     225.962     119.486
  H     -198.657     227.038     119.222
  H     -200.285     229.431     121.222
  H     -200.908     227.402     123.059
  H     -205.771     226.820     121.534
  H     -198.834     226.224     122.697
  H     -204.776     227.939     122.392
  H     -197.400     228.923     122.975
  H     -196.743     226.461     121.318
  H     -195.793     227.968     121.405
  P     -198.623     225.762     125.270
  C     -200.958     226.504     126.129
  O     -200.201     225.521     125.437
  O     -198.134     226.092     126.760
  O     -197.856     224.620     124.694
  H     -197.258     225.690     126.915
  H     -201.985     226.207     126.160
  H     -200.873     227.442     125.621
  H     -200.586     226.604     127.127

 6  7  8  9  10  11  12  13  14  15  26  29  33  34 0
 6-311+G(2d,p)
 ****
 36  38  39  40  41 0
 6-311+G(2d,p)
 ****
 1  2  3  4  5  16  17  18  19  20  21  22  23  24  25 0
 3-21G
 ****
 27  28  30  31  32  35  37  42  43  44  45  46  47 0
 3-21G
 ****
 48  49 0
 3-21G
 ****


