%nproc=1
%NoSave
%Mem=1900MB
#P OB98/GEN NMR

erre ene a

0 1
  C      197.743      57.120     653.789
  O      196.339      57.073     653.651
  H      198.001      57.010     654.839
  H      198.127      58.079     653.424
  H      198.212      56.292     653.229
  P      195.753      57.233     652.161
  C      195.705      59.832     652.167
  O      196.293      58.656     651.627
  C      195.495      60.873     651.059
  O      196.725      61.571     650.782
  C      195.004      60.299     649.738
  O      193.587      60.103     649.748
  C      195.443      61.385     648.757
  O      194.510      62.485     648.755
  C      196.794      61.811     649.352
  N      199.849      61.506     645.337
  C      198.817      62.393     645.602
  N      198.517      63.284     644.636
  N      198.129      62.379     646.718
  C      198.517      61.412     647.580
  C      199.534      60.488     647.430
  C      200.311      60.523     646.212
  O      201.279      59.823     645.939
  N      199.627      59.668     648.532
  C      198.649      60.075     649.321
  N      197.933      61.105     648.780
  O      194.194      57.495     652.397
  O      195.988      56.075     651.254
  H      194.796      63.144     648.104
  H      193.690      57.142     651.640
  H      200.353      61.581     644.476
  H      198.421      59.650     650.298
  H      196.977      62.884     649.209
  H      195.496      61.009     647.740
  H      198.776      63.128     643.673
  H      195.532      59.353     649.507
  H      197.752      63.915     644.816
  H      194.772      61.615     651.452
  H      196.373      60.246     652.931
  H      194.739      59.577     652.629
  P      192.996      58.938     648.831
  C      192.844      59.893     646.420
  O      193.609      59.161     647.359
  O      191.455      59.339     648.656
  O      193.147      57.553     649.391
  H      190.933      58.570     648.347
  H      193.379      59.956     645.496
  H      192.665      60.878     646.797
  H      191.909      59.398     646.258

 6  7  8  9  10  11  12  13  14  15  26  29  33  34 0
 6-311+G(2d,p)
 ****
 36  38  39  40  41 0
 6-311+G(2d,p)
 ****
 1  2  3  4  5  16  17  18  19  20  21  22  23  24  25 0
 3-21G
 ****
 27  28  30  31  32  35  37  42  43  44  45  46  47 0
 3-21G
 ****
 48  49 0
 3-21G
 ****


