%nproc=1
%NoSave
%Mem=1900MB
#P OB98/GEN NMR

erre ene a

0 1
  C     -433.538     276.853     235.564
  O     -433.921     277.074     236.910
  H     -432.927     275.948     235.489
  H     -434.439     276.722     234.956
  H     -432.974     277.714     235.185
  P     -432.734     277.259     237.977
  C     -433.811     279.486     238.785
  O     -432.660     278.840     238.255
  C     -433.562     279.830     240.255
  O     -432.294     280.513     240.401
  C     -434.609     280.770     240.850
  O     -435.780     280.080     241.263
  C     -433.842     281.321     242.042
  O     -433.809     280.345     243.098
  C     -432.436     281.516     241.448
  N     -432.164     286.533     242.452
  C     -432.329     285.462     243.257
  N     -432.371     284.149     242.916
  C     -432.204     284.002     241.591
  C     -432.016     285.007     240.650
  C     -432.005     286.328     241.123
  N     -431.865     287.424     240.304
  N     -431.902     284.462     239.375
  C     -432.008     283.156     239.561
  N     -432.220     282.829     240.876
  O     -431.406     276.983     237.125
  O     -432.824     276.415     239.208
  H     -434.735     280.090     243.283
  H     -430.641     276.847     237.718
  H     -432.452     285.676     244.318
  H     -431.939     282.415     238.775
  H     -431.639     281.346     242.184
  H     -434.302     282.227     242.456
  H     -434.847     281.592     240.167
  H     -433.504     278.893     240.828
  H     -434.667     278.817     238.704
  H     -432.016     288.336     240.717
  H     -431.888     287.293     239.303
  H     -434.009     280.401     238.216
  P     -437.163     280.893     241.225
  C     -437.843     280.215     238.805
  O     -437.432     281.266     239.680
  O     -436.775     282.300     241.878
  O     -438.297     280.232     241.940
  H     -437.528     282.680     242.364
  H     -437.983     280.606     237.819
  H     -438.763     279.797     239.157
  H     -437.091     279.454     238.783

 6  7  8  9  10  11  12  13  14  15  25  28  32  33  34  35 0
 6-311+G(2d,p)
 ****
 36  39  40 0
 6-311+G(2d,p)
 ****
 1  2  3  4  5  16  17  18  19  20  21  22  23  24 0
 3-21G
 ****
 26  27  29  30  31  37  38  41  42  43  44  45  46  47 0
 3-21G
 ****
 48 0
 3-21G
 ****


