%nproc=1
%NoSave
%Mem=1900MB
#P OB98/GEN NMR

erre ene a

0 1
  C      676.743       6.890    -195.999
  O      677.886       6.913    -196.833
  P      678.052       7.918    -198.059
  C      676.707       8.435    -200.228
  O      677.011       7.487    -199.208
  C      676.371       7.786    -201.578
  O      677.550       7.127    -202.096
  C      675.315       6.691    -201.389
  O      673.942       7.028    -201.342
  C      675.679       5.609    -202.404
  O      674.898       5.700    -203.598
  C      677.149       5.885    -202.712
  N      679.691       1.677    -203.981
  C      679.104       2.625    -204.798
  N      679.032       2.305    -206.114
  N      678.623       3.766    -204.366
  C      678.681       3.896    -203.015
  C      679.246       3.036    -202.104
  C      679.806       1.802    -202.599
  O      680.257       0.896    -201.900
  N      679.055       3.462    -200.811
  C      678.347       4.567    -200.942
  N      678.058       4.845    -202.255
  O      679.447       8.271    -198.460
  O      677.367       9.256    -197.470
  H      673.958       5.594    -203.342
  H      677.848      10.021    -197.843
  H      679.967       0.782    -204.361
  H      677.981       5.169    -200.118
  H      677.307       6.005    -203.786
  H      675.495       4.612    -201.982
  H      679.254       1.385    -206.454
  H      675.515       6.230    -200.411
  H      678.464       2.896    -206.711
  H      676.100       8.538    -202.321
  H      677.563       9.105    -200.324
  H      675.855       9.048    -199.906
  P      672.864       6.465    -200.303
  C      671.924       4.164    -199.676
  O      672.516       4.956    -200.699
  O      671.516       7.254    -200.675
  O      673.204       6.674    -198.862
  H      670.914       7.252    -199.904
  H      672.011       3.111    -199.947
  H      670.863       4.429    -199.583
  H      672.425       4.330    -198.720
  H      676.863       6.135    -195.251
  H      675.876       6.674    -196.588
  H      676.626       7.844    -195.528

 3  4  5  6  7  8  9  10  11  12  23  26  30  31 0
 6-311+G(2d,p)
 ****
 33  35  36  37  38 0
 6-311+G(2d,p)
 ****
 1  2  13  14  15  16  17  18  19  20  21  22  24  25 0
 3-21G
 ****
 27  28  29  32  34  39  40  41  42  43  44  45  46  47  48  49 0
 3-21G
 ****


