%nproc=1
%NoSave
%Mem=1900MB
#P OB98/GEN NMR

erre ene a

0 1
  C     -591.660    -642.181     342.406
  O     -590.460    -641.851     341.732
  H     -592.463    -641.540     342.027
  H     -591.547    -642.008     343.481
  H     -591.923    -643.227     342.221
  P     -589.159    -642.696     342.141
  C     -588.636    -644.208     340.080
  O     -588.380    -642.996     340.772
  C     -588.283    -644.064     338.597
  O     -589.230    -643.142     337.978
  C     -586.880    -643.495     338.343
  O     -586.413    -644.014     337.085
  C     -587.171    -642.007     338.204
  O     -586.070    -641.327     337.646
  C     -588.457    -642.079     337.382
  N     -589.957    -638.097     334.549
  C     -589.254    -639.213     334.238
  N     -588.907    -640.229     335.042
  C     -589.373    -640.038     336.290
  C     -590.107    -638.961     336.752
  C     -590.404    -637.953     335.821
  N     -591.109    -636.812     336.136
  N     -590.407    -639.116     338.099
  C     -589.860    -640.266     338.433
  N     -589.216    -640.852     337.373
  O     -589.761    -644.117     342.557
  O     -588.320    -642.102     343.224
  H     -586.326    -640.424     337.361
  H     -589.886    -644.159     343.520
  H     -588.929    -639.285     333.201
  H     -589.891    -640.713     339.414
  H     -588.253    -642.351     336.339
  H     -587.358    -641.555     339.185
  H     -586.164    -643.744     339.130
  H     -588.418    -645.033     338.104
  H     -589.702    -644.448     340.190
  H     -588.042    -645.010     340.520
  H     -591.262    -636.131     335.415
  H     -591.427    -636.686     337.086
  P     -584.883    -643.775     336.660
  C     -584.263    -646.315     336.588
  O     -584.347    -645.078     335.895
  O     -584.121    -643.877     338.067
  O     -584.590    -642.460     336.001
  H     -583.302    -643.338     338.044
  H     -583.888    -647.069     335.928
  H     -585.235    -646.596     336.935
  H     -583.603    -646.212     337.423

 6  7  8  9  10  11  12  13  14  15  25  28  32  33  34  35 0
 6-311+G(2d,p)
 ****
 36  37  40 0
 6-311+G(2d,p)
 ****
 1  2  3  4  5  16  17  18  19  20  21  22  23  24 0
 3-21G
 ****
 26  27  29  30  31  38  39 41  42  43  44  45  46  47  48 0
 3-21G
 ****


