%nproc=1
%NoSave
%Mem=1900MB
#P OB98/GEN NMR

erre ene a

0 1
  C     -152.850    -250.057     211.604
  O     -151.895    -250.335     212.605
  H     -153.834    -249.970     212.075
  H     -152.885    -250.867     210.868
  H     -152.616    -249.112     211.106
  P     -150.384    -250.626     212.159
  C     -148.510    -250.393     213.925
  O     -149.613    -251.156     213.462
  C     -148.273    -250.632     215.424
  O     -149.396    -250.080     216.171
  C     -148.158    -252.118     215.806
  O     -147.294    -252.200     216.947
  C     -149.592    -252.437     216.193
  O     -149.675    -253.654     216.890
  C     -149.967    -251.157     216.945
  N     -151.401    -251.009     217.115
  C     -151.948    -251.553     218.280
  O     -151.228    -252.136     219.090
  N     -153.302    -251.458     218.483
  C     -154.054    -250.924     217.570
  N     -155.389    -250.876     217.825
  C     -153.524    -250.391     216.296
  C     -152.202    -250.459     216.139
  O     -149.696    -249.518     211.433
  O     -150.494    -251.937     211.245
  H     -148.921    -253.754     217.515
  H     -150.398    -251.692     210.306
  H     -154.197    -249.973     215.562
  H     -151.723    -250.093     215.237
  H     -149.495    -251.135     217.935
  H     -150.213    -252.545     215.300
  H     -147.772    -252.737     214.993
  H     -147.380    -250.073     215.734
  H     -155.708    -251.261     218.706
  H     -148.740    -249.339     213.748
  H     -156.073    -250.503     217.183
  H     -147.605    -250.654     213.368
  P     -145.770    -252.694     216.854
  C     -143.593    -251.313     216.788
  O     -144.812    -251.578     217.480
  O     -145.365    -253.152     215.488
  O     -145.666    -253.905     217.901
  H     -144.999    -254.545     217.582
  H     -143.047    -250.552     217.306
  H     -143.812    -250.982     215.794
  H     -143.006    -252.206     216.745

 6  7  8  9  10  11  12  13  14  15  16  26  30  31  32  33  35 0
 6-311+G(2d,p)
 ****
 37  38 0
 6-311+G(2d,p)
 ****
 1  2  3  4  5  17  18  19  20  21  22  23  24  25 0
 3-21G
 ****
 27  28  29  34  36  39  40  41  42  43  44  45  46 0
 3-21G
 ****


