%nproc=1
%NoSave
%Mem=1900MB
#P OB98/GEN NMR

erre ene a

0 1
  C      -99.449    -122.829     -33.522
  O     -100.634    -122.158     -33.887
  P     -101.984    -122.385     -33.052
  C     -103.523    -124.400     -32.595
  O     -102.508    -123.853     -33.438
  C     -104.321    -125.457     -33.359
  O     -103.449    -126.466     -33.922
  C     -105.299    -126.239     -32.490
  O     -106.382    -125.535     -31.938
  C     -105.621    -127.413     -33.404
  O     -106.610    -127.061     -34.372
  C     -104.253    -127.659     -34.087
  N     -103.583    -128.850     -33.552
  C     -104.334    -130.015     -33.543
  O     -105.489    -130.087     -33.954
  N     -103.715    -131.121     -33.015
  C     -102.465    -131.150     -32.467
  O     -101.993    -132.166     -31.970
  C     -101.732    -129.878     -32.485
  C     -102.311    -128.797     -33.021
  O     -103.008    -121.308     -33.195
  O     -101.462    -122.596     -31.553
  H     -106.254    -126.325     -34.902
  H     -100.861    -123.349     -31.433
  H     -104.247    -131.974     -32.993
  H     -100.730    -129.871     -32.063
  H     -101.782    -127.848     -33.048
  H     -104.391    -127.805     -35.163
  H     -106.017    -128.267     -32.837
  H     -104.740    -126.644     -31.638
  H     -104.828    -124.965     -34.195
  H     -104.198    -123.592     -32.287
  H     -103.059    -124.820     -31.699
  P     -107.038    -125.897     -30.520
  C     -108.624    -127.733     -29.609
  O     -108.085    -127.091     -30.742
  O     -107.478    -124.752     -29.671
  O     -105.830    -126.650     -29.785
  H     -105.888    -126.499     -28.832
  H     -109.279    -128.550     -29.945
  H     -109.221    -127.039     -29.016
  H     -107.828    -128.160     -28.989
  H      -98.662    -122.552     -34.191
  H      -99.607    -123.886     -33.575
  H      -99.179    -122.558     -32.523

 3  4  5  6  7  8  9  10  11  12  13  23  28  29  30  31  32 0
 6-311+G(2d,p)
 ****
 33  34 0
 6-311+G(2d,p)
 ****
 1  2  14  15  16  17  18  19  20  21  22  24  25  26  27 0
 3-21G
 ****
 35  36  37  38  39  40  41  42  43  44  45 0
 3-21G
 ****


