%nproc=1
%NoSave
%Mem=1900MB
#P OB98/GEN NMR

erre ene a

0 1
  C      -27.207     644.397      54.391
  O      -27.210     644.192      52.994
  H      -26.186     644.660      54.701
  H      -27.497     643.481      54.910
  H      -27.878     645.220      54.665
  P      -28.611     643.949      52.257
  C      -28.959     646.458      51.751
  O      -28.806     645.146      51.213
  C      -28.188     647.464      50.887
  O      -26.770     647.358      51.150
  C      -28.358     647.248      49.394
  O      -29.609     647.717      48.939
  C      -27.148     648.020      48.858
  O      -27.431     649.431      48.801
  C      -26.082     647.709      49.923
  N      -25.152     646.659      49.517
  C      -24.050     647.050      48.761
  O      -23.873     648.212      48.410
  N      -23.195     646.052      48.392
  C      -23.375     644.708      48.608
  O      -22.617     643.841      48.167
  C      -24.571     644.357      49.387
  C      -25.387     645.327      49.808
  O      -29.779     643.692      53.152
  O      -28.322     642.686      51.307
  H      -28.171     649.541      48.175
  H      -28.735     641.888      51.697
  H      -22.402     646.315      47.830
  H      -24.735     643.298      49.593
  H      -26.273     645.078      50.381
  H      -25.495     648.613      50.153
  H      -26.873     647.707      47.850
  H      -28.227     646.185      49.145
  H      -28.515     648.480      51.172
  H      -28.563     646.465      52.767
  H      -30.024     646.709      51.769
  P      -30.189     647.210      47.537
  C      -31.533     645.030      47.887
  O      -31.586     646.463      47.831
  O      -29.229     646.441      46.680
  O      -30.656     648.554      46.805
  H      -30.167     648.655      45.970
  H      -32.511     644.644      48.087
  H      -30.865     644.728      48.666
  H      -31.184     644.649      46.950

 6  7  8  9  10  11  12  13  14  15  16  26  31  32  33  34  35 0
 6-311+G(2d,p)
 ****
 36  37 0
 6-311+G(2d,p)
 ****
 1  2  3  4  5  17  18  19  20  21  22  23  24  25 0
 3-21G
 ****
 27  28  29  30  38  39  40  41  42  43  44  45 0
 3-21G
 ****


