%nproc=1
%NoSave
%Mem=1900MB
#P OB98/GEN NMR

erre ene a

0 1
  C      -38.952    -106.789    -230.771
  O      -38.515    -105.903    -229.762
  H      -39.428    -106.208    -231.569
  H      -39.689    -107.485    -230.360
  H      -38.110    -107.343    -231.192
  P      -37.608    -106.533    -228.595
  C      -38.055    -108.297    -226.739
  O      -38.608    -107.329    -227.621
  C      -39.060    -108.653    -225.650
  O      -39.132    -107.595    -224.664
  C      -40.481    -108.866    -226.153
  O      -40.670    -110.176    -226.670
  C      -41.268    -108.667    -224.866
  O      -41.163    -109.850    -224.045
  C      -40.515    -107.498    -224.212
  N      -44.109    -104.066    -223.213
  C      -43.897    -105.316    -222.659
  N      -44.770    -105.711    -221.710
  N      -42.916    -106.109    -223.009
  C      -42.126    -105.586    -223.976
  C      -42.231    -104.360    -224.599
  C      -43.316    -103.492    -224.199
  O      -43.536    -102.364    -224.639
  N      -41.237    -104.180    -225.523
  C      -40.541    -105.297    -225.476
  N      -41.042    -106.188    -224.558
  O      -37.187    -105.254    -227.721
  O      -36.411    -107.295    -229.051
  H      -41.602    -109.643    -223.200
  H      -36.277    -105.387    -227.388
  H      -44.887    -103.499    -222.915
  H      -39.671    -105.512    -226.079
  H      -40.509    -107.567    -223.119
  H      -42.330    -108.492    -225.043
  H      -45.576    -105.170    -221.434
  H      -40.774    -108.093    -226.878
  H      -44.619    -106.610    -221.267
  H      -38.694    -109.554    -225.134
  H      -37.149    -107.885    -226.276
  H      -37.787    -109.191    -227.312
  P      -41.594    -110.331    -227.980
  C      -44.085    -109.744    -228.456
  O      -43.097    -110.074    -227.481
  O      -41.560    -111.909    -228.257
  O      -41.151    -109.542    -229.164
  H      -41.765    -112.089    -229.194
  H      -45.030    -109.603    -227.973
  H      -44.163    -110.539    -229.168
  H      -43.803    -108.842    -228.958

 6  7  8  9  10  11  12  13  14  15  26  29  33  34 0
 6-311+G(2d,p)
 ****
 36  38  39  40  41 0
 6-311+G(2d,p)
 ****
 1  2  3  4  5  16  17  18  19  20  21  22  23  24  25 0
 3-21G
 ****
 27  28  30  31  32  35  37  42  43  44  45  46  47 0
 3-21G
 ****
 48  49 0
 3-21G
 ****


