%nproc=1
%NoSave
%Mem=1900MB
#P OB98/GEN NMR

erre ene a

0 1
  C      109.134     558.409    -899.070
  O      109.716     558.048    -897.830
  H      108.218     558.980    -898.870
  H      108.871     557.506    -899.630
  H      109.814     559.027    -899.650
  P      111.127     557.276    -897.900
  C      112.529     559.257    -896.970
  O      112.053     557.934    -896.760
  C      113.154     559.814    -895.690
  O      112.094     560.322    -894.820
  C      113.965     558.784    -894.880
  O      115.076     559.469    -894.280
  C      112.992     558.393    -893.770
  O      113.658     557.837    -892.640
  C      112.312     559.739    -893.510
  N      110.383     559.105    -888.920
  C      111.696     559.290    -889.310
  N      112.634     559.298    -888.350
  N      112.049     559.443    -890.570
  C      111.002     559.445    -891.430
  C      109.646     559.268    -891.150
  C      109.276     559.078    -889.760
  O      108.136     558.897    -889.340
  N      108.907     559.316    -892.300
  C      109.795     559.502    -893.270
  N      111.064     559.589    -892.780
  O      111.763     557.830    -899.260
  O      111.050     555.780    -897.880
  H      114.316     558.494    -892.330
  H      111.548     557.221    -900.000
  H      110.171     558.983    -887.930
  H      109.550     559.579    -894.320
  H      112.941     560.417    -892.930
  H      112.275     557.644    -894.150
  H      112.438     559.231    -887.360
  H      114.323     557.935    -895.450
  H      113.600     559.464    -888.630
  H      113.786     560.687    -895.950
  H      111.681     559.891    -897.260
  H      113.267     559.247    -897.780
  P      116.352     558.602    -893.850
  C      118.042     560.009    -895.270
  O      117.662     559.543    -893.980
  O      116.524     557.609    -895.100
  O      116.209     557.849    -892.580
  H      116.960     556.780    -894.820
  H      118.921     560.614    -895.186
  H      117.247     560.591    -895.688
  H      118.244     559.173    -895.906

 6  7  8  9  10  11  12  13  14  15  26  29  33  34 0
 6-311+G(2d,p)
 ****
 36  38  39  40  41 0
 6-311+G(2d,p)
 ****
 1  2  3  4  5  16  17  18  19  20  21  22  23  24  25 0
 3-21G
 ****
 27  28  30  31  32  35  37  42  43  44  45  46  47 0
 3-21G
 ****
 48  49 0
 3-21G
 ****


