%nproc=1
%NoSave
%Mem=1900MB
#P OB98/GEN NMR

erre ene a

0 1
  C     -101.197      90.446     738.908
  O     -101.582      89.974     737.629
  H     -100.117      90.601     738.914
  H     -101.447      89.704     739.676
  H     -101.700      91.390     739.126
  P     -103.138      89.638     737.422
  C     -104.794      88.085     738.676
  O     -103.434      88.450     738.467
  C     -104.889      86.611     739.062
  O     -104.184      86.366     740.289
  C     -106.318      86.120     739.296
  O     -106.931      85.775     738.058
  C     -106.064      84.887     740.147
  O     -105.693      83.781     739.303
  C     -104.870      85.314     741.014
  N     -105.639      84.036     745.928
  C     -105.499      83.273     744.817
  N     -105.347      83.685     743.535
  C     -105.347      85.021     743.462
  C     -105.484      85.927     744.512
  C     -105.627      85.375     745.800
  N     -105.778      86.151     746.934
  N     -105.444      87.230     744.054
  C     -105.218      87.108     742.755
  N     -105.187      85.802     742.344
  O     -103.569      89.404     736.014
  O     -103.818      90.902     738.144
  H     -104.980      84.097     738.720
  H     -103.338      91.130     738.957
  H     -105.502      82.201     744.974
  H     -105.049      87.947     742.083
  H     -104.148      84.492     741.154
  H     -106.945      84.578     740.709
  H     -106.907      86.841     739.870
  H     -104.403      86.019     738.285
  H     -105.375      88.274     737.770
  H     -106.068      85.677     747.774
  H     -105.901      87.146     746.814
  H     -105.182      88.720     739.478
  P     -108.520      85.847     737.880
  C     -110.521      84.689     739.006
  O     -109.103      84.741     738.884
  O     -108.989      85.739     736.463
  O     -108.944      87.227     738.572
  H     -109.836      87.482     738.284
  H     -110.791      83.919     739.698
  H     -110.954      84.478     738.050
  H     -110.883      85.631     739.361

 6  7  8  9  10  11  12  13  14  15  25  28  32  33  34  35 0
 6-311+G(2d,p)
 ****
 36  39  40 0
 6-311+G(2d,p)
 ****
 1  2  3  4  5  16  17  18  19  20  21  22  23  24 0
 3-21G
 ****
 26  27  29  30  31  37  38  41  42  43  44  45  46  47 0
 3-21G
 ****
 48 0
 3-21G
 ****


