%nproc=1
%NoSave
%Mem=1900MB
#P OB98/GEN NMR

erre ene a

0 1
  C       99.827    -624.545    -234.040
  O       99.147    -625.459    -233.203
  P       99.780    -626.901    -232.916
  C       99.953    -627.026    -230.358
  O      100.651    -626.793    -231.572
  C      100.036    -628.503    -229.971
  O      101.416    -628.918    -229.855
  C       99.398    -628.832    -228.628
  O       97.987    -628.864    -228.738
  C      100.046    -630.175    -228.315
  O       99.368    -631.236    -229.004
  C      101.460    -629.982    -228.881
  N      105.353    -631.844    -226.161
  C      104.471    -632.439    -226.994
  N      103.433    -631.880    -227.650
  C      103.340    -630.570    -227.358
  C      104.147    -629.835    -226.502
  C      105.217    -630.520    -225.902
  N      106.156    -629.917    -225.099
  N      103.711    -628.525    -226.439
  C      102.661    -628.475    -227.236
  N      102.443    -629.670    -227.860
  O      100.480    -627.536    -234.074
  O       98.529    -627.786    -232.457
  H       99.344    -631.000    -229.953
  H       98.413    -628.533    -233.077
  H      104.626    -633.503    -227.157
  H      102.042    -627.602    -227.402
  H      101.812    -630.877    -229.411
  H      100.022    -630.413    -227.247
  H       99.707    -628.101    -227.875
  H       99.574    -629.091    -230.776
  H       98.908    -626.740    -230.497
  H      106.957    -630.464    -224.839
  H      106.246    -628.900    -225.143
  H      100.386    -626.404    -229.564
  P       97.084    -628.342    -227.528
  C       97.025    -626.060    -228.697
  O       97.242    -626.746    -227.478
  O       97.278    -629.041    -226.221
  O       95.585    -628.531    -228.066
  H       94.994    -628.728    -227.309
  H       97.910    -626.159    -229.335
  H       96.865    -625.000    -228.478
  H       96.152    -626.452    -229.216
  H       99.259    -623.641    -234.116
  H       99.947    -624.974    -235.013
  H      100.789    -624.328    -233.624

 3  4  5  6  7  8  9  10  11  12  22  25  29  30  31  32 0
 6-311+G(2d,p)
 ****
 33  36  37 0
 6-311+G(2d,p)
 ****
 1  2  13  14  15  16  17  18  19  20  21  23  24  26 0
 3-21G
 ****
 27  28  34  35  38  39  40  41  42  43  44  45  46  47  48 0
 3-21G
 ****


