%nproc=1
%NoSave
%Mem=1900MB
#P OB98/GEN NMR

erre ene a

0 1
  C      -20.980     -58.403    -191.299
  O      -19.946     -57.632    -191.885
  P      -20.383     -56.451    -192.881
  C      -21.368     -56.413    -195.290
  O      -20.665     -57.153    -194.294
  C      -20.489     -56.203    -196.517
  O      -20.206     -57.468    -197.145
  C      -21.126     -55.344    -197.594
  O      -21.062     -53.976    -197.244
  C      -20.284     -55.713    -198.811
  O      -19.099     -54.902    -198.885
  C      -19.925     -57.193    -198.534
  N      -20.631     -58.110    -199.413
  C      -20.130     -58.211    -200.718
  O      -19.163     -57.528    -201.063
  N      -20.763     -59.047    -201.602
  C      -21.803     -59.719    -201.219
  N      -22.388     -60.537    -202.137
  C      -22.374     -59.625    -199.862
  C      -21.748     -58.806    -199.020
  O      -19.018     -55.656    -193.124
  O      -21.472     -55.568    -192.367
  H      -18.627     -55.197    -199.690
  H      -19.194     -54.725    -193.353
  H      -23.244     -60.208    -199.593
  H      -22.100     -58.678    -198.003
  H      -18.848     -57.352    -198.669
  H      -20.832     -55.561    -199.745
  H      -22.169     -55.644    -197.761
  H      -19.537     -55.766    -196.186
  H      -21.978     -60.573    -203.064
  H      -21.648     -55.438    -194.882
  H      -23.188     -61.118    -201.932
  H      -22.282     -56.956    -195.553
  P      -21.925     -52.943    -198.109
  C      -22.313     -52.658    -200.628
  O      -21.476     -53.201    -199.625
  O      -21.211     -51.545    -197.780
  O      -23.392     -52.897    -197.851
  H      -21.715     -50.813    -198.179
  H      -21.817     -52.765    -201.595
  H      -22.496     -51.596    -200.443
  H      -23.263     -53.201    -200.657
  H      -20.552     -59.149    -190.663
  H      -21.552     -58.877    -192.069
  H      -21.617     -57.765    -190.723

 3  4  5  6  7  8  9  10  11  12  13  21  23  27  28  29  30  32 0
 6-311+G(2d,p)
 ****
 34  35 0
 6-311+G(2d,p)
 ****
 1  2  14  15  16  17  18  19  20  22  24  25  26 0
 3-21G
 ****
 31  33  36  37  38  39  40  41  42  43  44  45  46 0
 3-21G
 ****


