%nproc=1
%NoSave
%Mem=1900MB
#P OB98/GEN NMR

erre ene a

0 1
  C     -219.987     -15.557    -316.634
  O     -219.067     -14.497    -316.829
  H     -219.474     -16.526    -316.727
  H     -220.415     -15.481    -315.630
  H     -220.795     -15.493    -317.379
  P     -218.252     -14.505    -318.210
  C     -216.783     -16.232    -319.470
  O     -217.535     -15.945    -318.299
  C     -215.769     -17.328    -319.195
  O     -216.428     -18.526    -318.707
  C     -214.963     -17.787    -320.402
  O     -213.911     -16.886    -320.708
  C     -214.432     -19.114    -319.907
  O     -213.285     -18.902    -319.066
  C     -215.597     -19.655    -319.064
  N     -215.846     -24.483    -320.831
  C     -214.865     -23.797    -320.183
  N     -214.866     -22.514    -319.760
  C     -216.034     -21.926    -320.036
  C     -217.125     -22.469    -320.706
  C     -216.995     -23.821    -321.113
  N     -217.998     -24.490    -321.797
  N     -218.151     -21.564    -320.810
  C     -217.701     -20.481    -320.220
  N     -216.413     -20.637    -319.751
  O     -217.035     -13.495    -317.925
  O     -219.032     -14.101    -319.414
  H     -212.591     -18.486    -319.627
  H     -216.828     -13.016    -318.746
  H     -213.968     -24.366    -319.986
  H     -218.265     -19.557    -320.116
  H     -215.247     -20.092    -318.121
  H     -214.126     -19.792    -320.705
  H     -215.623     -17.959    -321.269
  H     -215.088     -16.981    -318.391
  H     -216.245     -15.333    -319.799
  H     -217.923     -25.495    -321.881
  H     -218.863     -23.999    -321.987
  H     -217.477     -16.548    -320.267
  P     -213.285     -16.951    -322.196
  C     -211.742     -18.715    -323.308
  O     -212.096     -18.035    -322.108
  O     -212.515     -15.561    -322.327
  O     -214.286     -17.150    -323.301
  H     -212.437     -15.308    -323.268
  H     -210.945     -19.400    -323.108
  H     -211.424     -18.003    -324.041
  H     -212.590     -19.252    -323.677

 6  7  8  9  10  11  12  13  14  15  25  28  32  33  34  35 0
 6-311+G(2d,p)
 ****
 36  39  40 0
 6-311+G(2d,p)
 ****
 1  2  3  4  5  16  17  18  19  20  21  22  23  24 0
 3-21G
 ****
 26  27  29  30  31  37  38  41  42  43  44  45  46  47  48 0
 3-21G
 ****


