%nproc=1
%NoSave
%Mem=1900MB
#P OB98/GEN NMR

erre ene a

0 1
  C     -613.527     350.401    -643.433
  O     -614.426     350.942    -642.491
  H     -612.758     349.831    -642.905
  H     -613.043     351.214    -643.995
  H     -614.053     349.736    -644.129
  P     -615.727     351.692    -643.047
  C     -614.628     353.826    -644.067
  O     -615.401     353.269    -643.013
  C     -613.996     355.147    -643.626
  O     -615.038     356.161    -643.523
  C     -613.286     355.070    -642.271
  O     -612.086     355.872    -642.338
  C     -614.271     355.700    -641.312
  O     -613.629     356.243    -640.151
  C     -614.971     356.733    -642.212
  N     -616.293     357.078    -641.698
  C     -616.342     357.524    -640.378
  O     -615.324     357.609    -639.690
  N     -617.568     357.820    -639.822
  C     -618.659     357.595    -640.510
  N     -619.838     357.879    -639.897
  C     -618.646     357.050    -641.882
  C     -617.443     356.828    -642.419
  O     -616.800     351.518    -641.863
  O     -616.233     351.201    -644.361
  H     -614.327     356.544    -639.534
  H     -617.703     351.460    -642.222
  H     -619.584     356.871    -642.403
  H     -617.339     356.421    -643.409
  H     -614.372     357.645    -642.273
  H     -614.986     354.928    -640.973
  H     -612.999     354.049    -641.990
  H     -613.310     355.489    -644.416
  H     -619.811     358.233    -638.957
  H     -615.289     354.012    -644.922
  H     -620.731     357.709    -640.324
  H     -613.856     353.105    -644.364
  P     -610.728     355.122    -642.660
  C     -609.359     356.162    -640.710
  O     -609.510     356.024    -642.123
  O     -610.596     355.222    -644.252
  O     -610.709     353.682    -642.208
  H     -610.771     354.355    -644.668
  H     -608.514     356.784    -640.501
  H     -609.209     355.198    -640.271
  H     -610.241     356.607    -640.299

 6  7  8  9  10  11  12  13  14  15  16  26  30  31  32  33  35 0
 6-311+G(2d,p)
 ****
 37  38 0
 6-311+G(2d,p)
 ****
 1  2  3  4  5  17  18  19  20  21  22  23  24  25 0
 3-21G
 ****
 27  28  29  34  36  39  40  41  42  43  44  45  46 0
 3-21G
 ****


