%nproc=1
%NoSave
%Mem=1900MB
#P OB98/GEN NMR

erre ene a

0 1
  C     -246.398     -38.270     106.666
  O     -247.808     -38.270     106.770
  H     -246.123     -38.036     105.634
  H     -245.986     -39.249     106.925
  H     -245.973     -37.503     107.321
  P     -248.465     -38.835     108.122
  C     -250.492     -38.172     109.579
  O     -249.789     -37.954     108.358
  C     -251.693     -37.229     109.695
  O     -251.245     -35.886     109.965
  C     -252.516     -37.127     108.421
  O     -253.235     -38.298     108.102
  C     -253.264     -35.816     108.620
  O     -254.474     -35.960     109.358
  C     -252.246     -34.988     109.442
  N     -251.654     -33.912     108.657
  C     -252.542     -32.950     108.184
  O     -253.756     -32.989     108.382
  N     -251.990     -31.949     107.433
  C     -250.678     -31.849     107.073
  O     -250.252     -30.949     106.361
  C     -249.792     -32.912     107.580
  C     -250.313     -33.880     108.338
  O     -247.556     -38.893     109.313
  O     -249.053     -40.260     107.693
  H     -254.990     -35.140     109.224
  H     -249.245     -40.819     108.483
  H     -252.615     -31.237     107.090
  H     -248.745     -32.865     107.314
  H     -249.680     -34.676     108.724
  H     -252.740     -34.537     110.312
  H     -253.526     -35.355     107.664
  H     -251.826     -36.961     107.584
  H     -252.310     -37.559     110.539
  H     -249.798     -37.973     110.403
  H     -250.819     -39.215     109.635
  P     -253.863     -38.578     106.659
  C     -254.309     -40.652     105.159
  O     -253.662     -40.136     106.316
  O     -253.578     -37.567     105.594
  O     -255.443     -38.504     106.981
  H     -255.884     -38.126     106.197
  H     -254.085     -41.694     105.060
  H     -253.961     -40.129     104.293
  H     -255.367     -40.522     105.254

 6  7  8  9  10  11  12  13  14  15  16  26  31  32  33  34  35 0
 6-311+G(2d,p)
 ****
 36  37 0
 6-311+G(2d,p)
 ****
 1  2  3  4  5  17  18  19  20  21  22  23  24  25 0
 3-21G
 ****
 27  28  29  30  38  39  40  41  42  43  44  45 0
 3-21G
 ****


