%nproc=1
%NoSave
%Mem=1900MB
#P OB98/GEN NMR

erre ene a

0 1
  C      -43.660    -671.578    -263.308
  O      -44.421    -670.408    -263.527
  H      -43.154    -671.492    -262.347
  H      -42.907    -671.688    -264.091
  H      -44.308    -672.459    -263.292
  P      -45.270    -670.332    -264.885
  C      -43.688    -668.610    -266.030
  O      -44.204    -669.932    -266.025
  C      -43.416    -668.145    -267.467
  O      -44.675    -667.801    -268.100
  C      -42.506    -666.921    -267.548
  O      -41.557    -667.105    -268.606
  C      -43.439    -665.773    -267.864
  O      -42.785    -664.703    -268.543
  C      -44.557    -666.479    -268.649
  N      -45.821    -665.751    -268.580
  C      -45.826    -664.436    -269.063
  O      -44.797    -663.940    -269.511
  N      -46.979    -663.705    -268.981
  C      -48.030    -664.217    -268.407
  N      -49.138    -663.437    -268.335
  C      -48.054    -665.579    -267.833
  C      -46.927    -666.283    -267.966
  O      -46.129    -668.996    -264.696
  O      -46.093    -671.539    -265.196
  H      -43.476    -664.055    -268.826
  H      -46.858    -668.936    -265.357
  H      -48.943    -665.955    -267.347
  H      -46.859    -667.295    -267.571
  H      -44.268    -666.577    -269.711
  H      -43.851    -665.368    -266.925
  H      -41.963    -666.731    -266.621
  H      -43.007    -668.987    -268.031
  H      -49.078    -662.505    -268.726
  H      -42.753    -668.591    -265.457
  H      -49.997    -663.713    -267.880
  H      -44.409    -667.938    -265.559
  P      -40.052    -667.453    -268.154
  C      -38.871    -665.168    -268.477
  O      -39.402    -666.107    -267.559
  O      -39.290    -667.681    -269.532
  O      -39.972    -668.637    -267.250
  H      -39.204    -668.624    -269.726
  H      -38.476    -664.330    -267.942
  H      -39.646    -664.837    -269.137
  H      -38.090    -665.628    -269.046

 6  7  8  9  10  11  12  13  14  15  16  26  30  31  32  33  35 0
 6-311+G(2d,p)
 ****
 37  38 0
 6-311+G(2d,p)
 ****
 1  2  3  4  5  17  18  19  20  21  22  23  24  25 0
 3-21G
 ****
 27  28  29  34  36  39  40  41  42  43  44  45  46 0
 3-21G
 ****


