%nproc=1
%NoSave
%Mem=1900MB
#P OB98/GEN NMR

erre ene a

0 1
  C     -700.107      -7.611    -896.670
  O     -699.994      -6.648    -897.690
  H     -699.388      -7.376    -895.880
  H     -699.885      -8.614    -897.060
  H     -701.121      -7.599    -896.260
  P     -700.944      -6.835    -898.980
  C     -702.485      -4.779    -898.890
  O     -702.340      -6.144    -898.550
  C     -702.515      -3.910    -897.630
  O     -701.296      -4.174    -896.870
  C     -702.562      -2.404    -897.900
  O     -703.402      -1.762    -896.950
  C     -701.116      -1.965    -897.700
  O     -701.026      -0.570    -897.360
  C     -700.651      -2.923    -896.600
  N     -696.188      -0.486    -896.170
  C     -697.449      -0.097    -895.940
  N     -698.598      -0.800    -896.080
  C     -698.312      -2.092    -896.420
  C     -697.064      -2.640    -896.680
  C     -695.966      -1.769    -896.550
  N     -694.668      -2.158    -896.780
  N     -697.204      -3.964    -897.040
  C     -698.486      -4.203    -897.000
  N     -699.199      -3.097    -896.640
  O     -701.051      -8.233    -899.500
  O     -700.331      -5.762    -900.000
  H     -701.199      -0.048    -898.150
  H     -700.131      -4.913    -899.560
  H     -697.587       0.950    -895.640
  H     -698.948      -5.167    -897.250
  H     -700.903      -2.558    -895.610
  H     -700.549      -2.112    -898.640
  H     -702.918      -2.175    -898.920
  H     -703.362      -4.222    -897.000
  H     -703.426      -4.621    -899.450
  H     -693.925      -1.493    -896.650
  H     -694.481      -3.115    -897.050
  H     -701.658      -4.481    -899.540
  P     -704.981      -1.932    -897.090
  C     -705.885      -2.723    -894.780
  O     -705.466      -3.120    -896.100
  O     -705.534      -1.989    -898.480
  O     -705.528      -0.621    -896.330
  H     -706.346      -0.298    -896.810
  H     -706.180      -3.588    -894.224
  H     -706.712      -2.049    -894.856
  H     -705.074      -2.237    -894.279

 6  7  8  9  10  11  12  13  14  15  25  28  32  33  34  35 0
 6-311+G(2d,p)
 ****
 36  39  40 0
 6-311+G(2d,p)
 ****
 1  2  3  4  5  16  17  18  19  20  21  22  23  24 0
 3-21G
 ****
 26  27  29  30  31  37  38  41  42  43  44  45  46  47 0
 3-21G
 ****
 48 0
 3-21G
 ****


