%nproc=1
%NoSave
%Mem=1900MB
#P OB98/GEN NMR

erre ene a

0 1
  C       53.269    -249.183    -418.868
  O       52.246    -249.904    -419.518
  H       54.007    -249.898    -418.487
  H       52.870    -248.618    -418.026
  H       53.766    -248.508    -419.571
  P       50.931    -249.119    -420.011
  C       48.788    -248.291    -418.873
  O       50.034    -248.947    -418.680
  C       48.079    -248.030    -417.541
  O       47.733    -249.295    -416.916
  C       48.923    -247.238    -416.536
  O       48.127    -246.194    -415.963
  C       49.287    -248.268    -415.474
  O       49.582    -247.666    -414.216
  C       48.057    -249.180    -415.518
  N       48.293    -250.483    -414.907
  C       48.175    -250.553    -413.516
  O       47.921    -249.540    -412.864
  N       48.382    -251.757    -412.894
  C       48.734    -252.794    -413.586
  N       48.936    -253.954    -412.911
  C       48.917    -252.755    -415.059
  C       48.671    -251.583    -415.647
  O       50.226    -249.745    -421.165
  O       51.439    -247.628    -420.297
  H       48.804    -247.128    -413.941
  H       50.792    -247.171    -420.891
  H       49.218    -253.641    -415.593
  H       48.772    -251.464    -416.718
  H       47.205    -248.707    -415.007
  H       50.175    -248.825    -415.803
  H       49.810    -246.788    -416.976
  H       47.128    -247.525    -417.748
  H       48.801    -253.937    -411.905
  H       48.160    -248.913    -419.524
  H       49.216    -254.822    -413.349
  H       48.974    -247.332    -419.369
  P       48.461    -244.700    -416.448
  C       49.829    -242.684    -415.558
  O       49.394    -244.020    -415.325
  O       47.059    -243.943    -416.284
  O       48.979    -244.624    -417.847
  H       46.618    -243.867    -417.151
  H       50.437    -242.359    -414.739
  H       48.978    -242.042    -415.647
  H       50.400    -242.647    -416.462

 6  7  8  9  10  11  12  13  14  15  16  26  30  31  32  33  35 0
 6-311+G(2d,p)
 ****
 37  38 0
 6-311+G(2d,p)
 ****
 1  2  3  4  5  17  18  19  20  21  22  23  24  25 0
 3-21G
 ****
 27  28  29  34  36  39  40  41  42  43  44  45  46 0
 3-21G
 ****


