%nproc=1
%NoSave
%Mem=1900MB
#P OB98/GEN NMR

erre ene a

0 1
  C       -0.960     149.062     102.830
  O       -1.195     149.020     104.220
  H       -0.789     150.100     102.532
  H       -1.835     148.688     102.293
  H       -0.078     148.473     102.560
  P       -1.196     147.602     104.968
  C       -2.712     145.513     104.930
  O       -2.533     146.852     104.490
  C       -4.191     145.129     104.857
  O       -4.922     145.939     105.826
  C       -4.822     145.378     103.469
  O       -5.812     144.368     103.232
  C       -5.491     146.721     103.681
  O       -6.494     146.964     102.726
  C       -5.996     146.578     105.113
  N       -6.357     147.871     105.686
  C       -7.660     148.308     105.481
  O       -8.501     147.673     104.845
  N       -7.961     149.551     105.972
  C       -7.074     150.420     106.534
  O       -7.380     151.551     106.885
  C       -5.695     149.926     106.677
  C       -5.405     148.691     106.260
  O       -1.000     147.641     106.446
  O       -0.056     146.761     104.222
  H       -6.771     147.899     102.765
  H        0.252     146.030     104.790
  H       -8.905     149.877     105.842
  H       -4.963     150.598     107.105
  H       -4.395     148.300     106.331
  H       -6.867     145.909     105.157
  H       -4.751     147.526     103.602
  H       -4.090     145.382     102.660
  H       -4.307     144.083     105.162
  H       -2.360     145.442     105.965
  H       -2.116     144.840     104.305
  P       -5.652     143.291     102.052
  C       -6.126     143.024      99.542
  O       -6.120     143.920     100.648
  O       -6.264     141.961     102.352
  O       -4.068     143.134     101.874
  H       -3.846     142.184     101.812
  H       -6.451     143.543      98.664
  H       -6.793     142.212      99.744
  H       -5.138     142.644      99.386

 6  7  8  9  10  11  12  13  14  15  16  26  31  32  33  34  35 0
 6-311+G(2d,p)
 ****
 36  37 0
 6-311+G(2d,p)
 ****
 1  2  3  4  5  17  18  19  20  21  22  23  24  25 0
 3-21G
 ****
 27  28  29  30  38  39  40  41  42  43  44  45 0
 3-21G
 ****


