%nproc=1
%NoSave
%Mem=1900MB
#P OB98/GEN NMR

erre ene a

0 1
  C      223.264     283.010      78.495
  O      224.554     283.140      79.103
  P      225.910     282.999      78.253
  C      226.498     280.613      78.997
  O      226.191     281.456      77.893
  C      227.479     279.485      78.646
  O      226.925     278.610      77.625
  C      228.843     279.958      78.119
  O      229.790     278.971      78.541
  C      228.647     279.898      76.616
  O      229.863     279.878      75.883
  C      227.818     278.627      76.493
  N      228.154     278.694      71.381
  C      229.094     278.576      72.342
  N      228.928     278.532      73.678
  C      227.623     278.570      74.000
  C      226.549     278.678      73.130
  C      226.853     278.751      71.756
  N      225.902     278.918      70.776
  N      225.354     278.724      73.828
  C      225.707     278.657      75.095
  N      227.068     278.561      75.253
  O      227.082     283.706      78.851
  O      225.551     283.648      76.834
  H      230.405     279.134      76.209
  H      226.277     284.243      76.559
  H      230.121     278.526      71.989
  H      225.029     278.697      75.935
  H      228.447     277.732      76.553
  H      228.080     280.787      76.291
  H      229.128     280.951      78.474
  H      227.615     278.871      79.544
  H      225.564     280.172      79.370
  H      226.223     279.055      69.832
  H      224.947     279.094      71.046
  H      226.920     281.228      79.801
  P      230.927     279.300      79.619
  C      232.875     279.934      78.085
  O      231.876     280.417      78.965
  O      231.648     278.104      80.158
  O      230.164     280.096      80.782
  H      230.695     280.071      81.598
  H      233.696     279.497      78.663
  H      233.264     280.772      77.494
  H      232.472     279.183      77.407
  H      222.505     283.139      79.238
  H      223.173     282.038      78.056
  H      223.151     283.756      77.736

 3  4  5  6  7  8  9  10  11  12  22  25  29  30  31  32 0
 6-311+G(2d,p)
 ****
 33  36  37 0
 6-311+G(2d,p)
 ****
 1  2  13  14  15  16  17  18  19  20  21  23  24  26 0
 3-21G
 ****
 27  28  34  35  38  39  40  41  42  43  44  45  46  47  48 0
 3-21G
 ****


