%nproc=1
%NoSave
%Mem=1900MB
#P OB98/GEN NMR

erre ene a

0 1
  C     -389.369     -60.878    -676.026
  O     -389.048     -62.238    -676.159
  P     -387.745     -62.594    -677.040
  C     -388.832     -61.551    -679.148
  O     -388.229     -62.707    -678.559
  C     -388.882     -61.701    -680.660
  O     -387.532     -61.874    -681.181
  C     -389.679     -62.917    -681.140
  O     -391.066     -62.662    -681.086
  C     -389.118     -63.064    -682.572
  O     -389.850     -62.253    -683.492
  C     -387.669     -62.599    -682.432
  N     -386.703     -63.672    -682.527
  C     -386.340     -64.074    -683.831
  O     -386.852     -63.519    -684.797
  N     -385.453     -65.111    -683.970
  C     -384.947     -65.690    -682.930
  N     -384.081     -66.702    -683.124
  C     -385.327     -65.317    -681.540
  C     -386.199     -64.301    -681.428
  O     -387.433     -64.126    -676.625
  O     -386.561     -61.700    -676.779
  H     -389.847     -61.338    -683.124
  H     -386.485     -64.343    -676.733
  H     -384.901     -65.846    -680.698
  H     -386.525     -63.963    -680.437
  H     -387.419     -61.850    -683.221
  H     -389.218     -64.100    -682.939
  H     -389.396     -63.808    -680.562
  H     -389.291     -60.781    -681.092
  H     -383.864     -66.949    -684.090
  H     -388.232     -60.664    -678.907
  H     -383.631     -67.209    -682.376
  H     -389.828     -61.436    -678.740
  P     -391.942     -63.627    -680.166
  C     -392.319     -65.213    -682.180
  O     -392.932     -64.379    -681.195
  O     -392.939     -62.598    -679.429
  O     -391.214     -64.521    -679.178
  H     -393.466     -63.056    -678.760
  H     -393.115     -65.773    -682.681
  H     -391.660     -65.931    -681.678
  H     -391.770     -64.597    -682.885
  H     -390.247     -60.776    -675.423
  H     -389.550     -60.458    -676.993
  H     -388.555     -60.363    -675.560

 3  4  5  6  7  8  9  10  11  12  13  21  23  27  28  29  30  32 0
 6-311+G(2d,p)
 ****
 34  35 0
 6-311+G(2d,p)
 ****
 1  2  14  15  16  17  18  19  20  22  24  25  26 0
 3-21G
 ****
 31  33  36  37  38  39  40  41  42  43  44  45  46 0
 3-21G
 ****


