%nproc=1
%NoSave
%Mem=1900MB
#P OB98/GEN NMR

erre ene a

0 1
  C     -289.674    -658.929     267.223
  O     -290.753    -658.200     266.671
  H     -288.830    -658.249     267.363
  H     -289.374    -659.730     266.540
  H     -289.953    -659.350     268.190
  P     -292.093    -659.033     266.369
  C     -292.497    -661.261     265.099
  O     -291.711    -660.083     265.210
  C     -292.594    -661.697     263.641
  O     -291.282    -661.914     263.088
  C     -293.374    -662.991     263.421
  O     -294.773    -662.743     263.384
  C     -292.829    -663.447     262.075
  O     -293.463    -662.749     260.980
  C     -291.346    -663.055     262.187
  N     -288.888    -667.281     260.922
  C     -289.618    -666.410     260.139
  N     -289.756    -666.734     258.838
  N     -290.168    -665.318     260.600
  C     -289.973    -665.131     261.926
  C     -289.259    -665.918     262.798
  C     -288.630    -667.110     262.278
  O     -287.913    -667.891     262.899
  N     -289.278    -665.395     264.064
  C     -290.032    -664.314     263.964
  N     -290.489    -664.124     262.693
  O     -293.027    -657.974     265.603
  O     -292.775    -659.608     267.561
  H     -293.163    -663.135     260.142
  H     -293.957    -658.173     265.802
  H     -288.472    -668.094     260.507
  H     -290.278    -663.651     264.781
  H     -290.928    -662.740     261.227
  H     -292.997    -664.510     261.911
  H     -289.651    -667.688     258.516
  H     -293.126    -663.730     264.194
  H     -290.310    -666.110     258.262
  H     -293.057    -660.874     263.083
  H     -293.501    -661.058     265.486
  H     -292.045    -662.054     265.703
  P     -295.754    -664.021     263.378
  C     -296.426    -665.810     261.615
  O     -295.707    -664.615     261.893
  O     -297.212    -663.361     263.467
  O     -295.511    -665.006     264.474
  H     -297.861    -664.033     263.737
  H     -296.295    -666.074     260.586
  H     -297.466    -665.655     261.813
  H     -296.058    -666.600     262.236

 6  7  8  9  10  11  12  13  14  15  26  29  33  34 0
 6-311+G(2d,p)
 ****
 36  38  39  40  41 0
 6-311+G(2d,p)
 ****
 1  2  3  4  5  16  17  18  19  20  21  22  23  24  25 0
 3-21G
 ****
 27  28  30  31  32  35  37  42  43  44  45  46  47 0
 3-21G
 ****
 48  49 0
 3-21G
 ****


