%nproc=1
%NoSave
%Mem=1900MB
#P OB98/GEN NMR

erre ene a

0 1
  C      513.633     295.698     512.381
  O      514.987     295.457     512.036
  H      513.279     294.874     513.002
  H      513.017     295.756     511.480
  H      513.558     296.632     512.949
  P      515.667     296.506     511.029
  C      514.257     295.429     509.115
  O      514.602     296.609     509.821
  C      514.629     295.571     507.634
  O      514.414     296.922     507.192
  C      516.093     295.271     507.326
  O      516.388     293.886     507.287
  C      516.201     295.909     505.958
  O      515.548     295.080     504.976
  C      515.418     297.225     506.188
  N      516.288     298.320     506.622
  C      517.152     298.853     505.666
  O      517.200     298.391     504.522
  N      518.011     299.871     506.029
  C      517.977     300.348     507.245
  N      518.836     301.344     507.554
  C      517.057     299.824     508.275
  C      516.254     298.827     507.902
  O      516.861     295.664     510.366
  O      516.078     297.807     511.616
  H      514.650     294.906     505.317
  H      517.256     296.173     509.621
  H      517.072     300.243     509.279
  H      515.547     298.412     508.604
  H      514.898     297.531     505.274
  H      517.228     296.046     505.617
  H      516.770     295.786     508.015
  H      513.951     294.927     507.056
  H      519.494     301.639     506.831
  H      513.172     295.272     509.217
  H      518.988     301.664     508.491
  H      514.783     294.554     509.543
  P      517.765     293.397     507.946
  C      519.427     293.640     505.945
  O      518.943     294.170     507.184
  O      517.917     291.889     507.432
  O      517.806     293.489     509.437
  H      518.345     291.335     508.102
  H      520.207     294.269     505.568
  H      518.626     293.602     505.236
  H      519.810     292.654     506.104

 6  7  8  9  10  11  12  13  14  15  16  26  30  31  32  33  35 0
 6-311+G(2d,p)
 ****
 37  38 0
 6-311+G(2d,p)
 ****
 1  2  3  4  5  17  18  19  20  21  22  23  24  25 0
 3-21G
 ****
 27  28  29  34  36  39  40  41  42  43  44  45  46 0
 3-21G
 ****


