%nproc=1
%NoSave
%Mem=1900MB
#P OB98/GEN NMR

erre ene a

0 1
  C      376.098    -488.895    1331.264
  O      375.765    -487.968    1330.247
  H      375.853    -489.897    1330.917
  H      375.511    -488.685    1332.164
  H      377.170    -488.853    1331.497
  P      376.169    -486.427    1330.432
  C      375.257    -484.537    1331.949
  O      374.953    -485.726    1331.214
  C      374.118    -484.230    1332.907
  O      373.531    -485.453    1333.408
  C      374.566    -483.453    1334.156
  O      374.777    -482.093    1333.853
  C      373.410    -483.720    1335.097
  O      372.295    -482.857    1334.800
  C      373.051    -485.191    1334.745
  N      373.615    -486.148    1335.706
  C      373.134    -486.072    1337.004
  O      372.312    -485.231    1337.370
  N      373.654    -486.974    1337.905
  C      374.686    -487.848    1337.629
  O      375.174    -488.580    1338.486
  C      375.163    -487.879    1336.247
  C      374.625    -487.030    1335.360
  O      376.623    -485.720    1329.204
  O      377.317    -486.472    1331.552
  H      372.197    -482.882    1333.818
  H      378.191    -486.334    1331.115
  H      373.331    -486.929    1338.854
  H      375.961    -488.567    1336.003
  H      374.970    -487.030    1334.331
  H      371.961    -485.324    1334.721
  H      373.675    -483.575    1336.133
  H      375.484    -483.914    1334.580
  H      373.339    -483.672    1332.369
  H      375.377    -483.711    1331.235
  H      376.204    -484.689    1332.474
  P      375.813    -481.231    1334.729
  C      376.067    -480.586    1337.203
  O      375.181    -481.029    1336.187
  O      376.316    -479.987    1334.083
  O      377.022    -482.259    1334.997
  H      377.851    -481.888    1334.610
  H      375.533    -480.489    1338.125
  H      376.479    -479.638    1336.928
  H      376.857    -481.297    1337.322

 6  7  8  9  10  11  12  13  14  15  16  26  31  32  33  34  35 0
 6-311+G(2d,p)
 ****
 36  37 0
 6-311+G(2d,p)
 ****
 1  2  3  4  5  17  18  19  20  21  22  23  24  25 0
 3-21G
 ****
 27  28  29  30  38  39  40  41  42  43  44  45 0
 3-21G
 ****


