%nproc=1
%NoSave
%Mem=1900MB
#P OB98/GEN NMR

erre ene a

0 1
  C     -433.688     -29.323    -106.061
  O     -434.837     -29.985    -105.562
  P     -435.676     -29.226    -104.420
  C     -436.340     -31.604    -103.562
  O     -435.905     -30.289    -103.245
  C     -436.418     -32.441    -102.288
  O     -435.096     -32.723    -101.790
  C     -437.171     -31.771    -101.144
  O     -438.569     -31.930    -101.307
  C     -436.602     -32.505     -99.932
  O     -437.252     -33.782     -99.757
  C     -435.131     -32.691    -100.335
  N     -432.560     -31.032     -96.312
  C     -433.494     -32.040     -96.413
  N     -433.750     -32.741     -95.285
  N     -434.126     -32.344     -97.516
  C     -433.782     -31.552     -98.565
  C     -432.880     -30.514     -98.582
  C     -432.156     -30.226     -97.368
  O     -431.245     -29.408     -97.254
  N     -432.817     -29.929     -99.823
  C     -433.652     -30.640    -100.556
  N     -434.249     -31.647     -99.842
  O     -437.119     -29.058    -105.085
  O     -435.096     -27.922    -103.966
  H     -438.201     -33.637     -99.584
  H     -437.227     -28.161    -105.459
  H     -432.094     -30.859     -95.437
  H     -433.845     -30.478    -101.602
  H     -434.726     -33.646     -99.981
  H     -436.751     -31.948     -99.005
  H     -433.322     -32.550     -94.393
  H     -436.909     -30.709    -101.086
  H     -434.439     -33.482     -95.338
  H     -436.889     -33.401    -102.545
  H     -435.623     -32.058    -104.251
  H     -437.319     -31.546    -104.052
  P     -439.522     -30.800    -100.691
  C     -441.571     -32.311    -101.182
  O     -440.880     -31.520    -100.242
  O     -439.946     -29.934    -101.974
  O     -438.878     -29.945     -99.653
  H     -440.020     -28.996    -101.722
  H     -442.110     -33.103    -100.653
  H     -440.889     -32.770    -101.907
  H     -442.299     -31.692    -101.719
  H     -433.224     -29.930    -106.810
  H     -432.998     -29.154    -105.261
  H     -433.974     -28.385    -106.489

 3  4  5  6  7  8  9  10  11  12  23  26  30  31 0
 6-311+G(2d,p)
 ****
 33  35  36  37  38 0
 6-311+G(2d,p)
 ****
 1  2  13  14  15  16  17  18  19  20  21  22  24  25 0
 3-21G
 ****
 27  28  29  32  34  39  40  41  42  43  44  45  46  47  48  49 0
 3-21G
 ****


