%nproc=1
%NoSave
%Mem=1900MB
#P OB98/GEN NMR

erre ene a

0 1
  C      315.604     392.737    -226.959
  O      316.310     393.080    -228.131
  H      315.626     393.594    -226.277
  H      316.076     391.890    -226.457
  H      314.562     392.503    -227.192
  P      316.601     391.942    -229.227
  C      316.442     393.666    -231.128
  O      317.285     392.724    -230.463
  C      317.037     394.088    -232.474
  O      318.103     395.044    -232.256
  C      317.616     392.928    -233.295
  O      317.161     393.030    -234.649
  C      319.118     393.147    -233.219
  O      319.805     392.553    -234.318
  C      319.190     394.676    -233.139
  N      320.472     395.165    -232.641
  C      321.540     395.132    -233.549
  O      321.374     394.693    -234.687
  N      322.768     395.578    -233.140
  C      322.939     395.973    -231.912
  N      324.187     396.395    -231.560
  C      321.853     395.976    -230.909
  C      320.658     395.566    -231.339
  O      315.418     391.106    -229.592
  O      317.816     391.098    -228.621
  H      319.391     392.883    -235.153
  H      317.854     390.213    -229.057
  H      322.043     396.301    -229.892
  H      319.794     395.545    -230.674
  H      318.998     395.127    -234.116
  H      319.510     392.707    -232.293
  H      317.334     391.953    -232.911
  H      316.263     394.623    -233.037
  H      324.901     396.371    -232.283
  H      316.312     394.536    -230.474
  H      324.432     396.716    -230.635
  H      315.472     393.191    -231.296
  P      316.533     391.693    -235.284
  C      314.921     392.937    -236.890
  O      316.023     392.045    -236.771
  O      315.181     391.497    -234.450
  O      317.422     390.502    -235.191
  H      315.306     390.823    -233.758
  H      314.689     393.082    -237.925
  H      315.174     393.877    -236.446
  H      314.071     392.523    -236.389

 6  7  8  9  10  11  12  13  14  15  16  26  30  31  32  33  35 0
 6-311+G(2d,p)
 ****
 37  38 0
 6-311+G(2d,p)
 ****
 1  2  3  4  5  17  18  19  20  21  22  23  24  25 0
 3-21G
 ****
 27  28  29  34  36  39  40  41  42  43  44  45  46 0
 3-21G
 ****


