%nproc=1
%NoSave
%Mem=1900MB
#P OB98/GEN NMR

erre ene a

0 1
  C       89.436     -12.554      36.911
  O       89.091     -13.875      36.545
  H       88.525     -12.018      37.188
  H       89.897     -12.047      36.060
  H       90.120     -12.552      37.764
  P       90.294     -14.930      36.422
  C       90.785     -14.179      33.986
  O       91.290     -14.355      35.301
  C       91.874     -13.632      33.069
  O       92.387     -12.384      33.585
  C       93.077     -14.554      32.904
  O       92.843     -15.546      31.913
  C       94.132     -13.562      32.443
  O       93.924     -13.244      31.049
  C       93.815     -12.336      33.310
  N       98.369     -12.587      35.527
  C       98.020     -12.752      34.201
  N       99.026     -13.031      33.345
  N       96.795     -12.657      33.752
  C       95.889     -12.398      34.725
  C       96.112     -12.221      36.072
  C       97.472     -12.313      36.551
  O       97.836     -12.164      37.715
  N       94.946     -11.975      36.749
  C       94.017     -12.025      35.815
  N       94.537     -12.282      34.571
  O       89.594     -16.181      35.703
  O       90.926     -15.329      37.712
  H       93.070     -12.778      30.987
  H       89.412     -16.867      36.373
  H       99.326     -12.682      35.821
  H       92.960     -11.876      35.986
  H       94.017     -11.394      32.789
  H       95.146     -13.954      32.530
  H       99.988     -13.140      33.627
  H       93.383     -14.999      33.858
  H       98.793     -13.152      32.367
  H       91.415     -13.417      32.096
  H       89.946     -13.475      34.017
  H       90.429     -15.143      33.609
  P       93.448     -17.013      32.150
  C       95.206     -16.642      30.280
  O       94.971     -16.980      31.640
  O       92.699     -17.884      31.036
  O       93.238     -17.575      33.514
  H       92.080     -18.509      31.463
  H       96.258     -16.660      30.085
  H       94.824     -15.662      30.085
  H       94.713     -17.350      29.646

 6  7  8  9  10  11  12  13  14  15  26  29  33  34 0
 6-311+G(2d,p)
 ****
 36  38  39  40  41 0
 6-311+G(2d,p)
 ****
 1  2  3  4  5  16  17  18  19  20  21  22  23  24  25 0
 3-21G
 ****
 27  28  30  31  32  35  37  42  43  44  45  46  47 0
 3-21G
 ****
 48  49 0
 3-21G
 ****


