%nproc=1
%NoSave
%Mem=1900MB
#P OB98/GEN NMR

erre ene a

0 1
  C      151.756    -409.973    -184.164
  O      150.722    -409.073    -184.506
  H      152.363    -409.522    -183.375
  H      152.388    -410.165    -185.032
  H      151.337    -410.913    -183.791
  P      149.699    -409.560    -185.645
  C      147.311    -408.826    -186.388
  O      148.432    -408.580    -185.556
  C      146.108    -407.995    -185.925
  O      145.543    -408.612    -184.729
  C      146.457    -406.549    -185.552
  O      145.298    -405.733    -185.797
  C      146.695    -406.663    -184.054
  O      146.712    -405.389    -183.446
  C      145.549    -407.607    -183.687
  N      144.117    -407.438    -178.785
  C      143.736    -406.717    -179.856
  N      144.147    -406.827    -181.136
  C      145.049    -407.822    -181.259
  C      145.525    -408.651    -180.263
  C      145.025    -408.429    -178.965
  N      145.422    -409.163    -177.869
  N      146.441    -409.562    -180.771
  C      146.509    -409.281    -182.054
  N      145.692    -408.235    -182.396
  O      149.149    -410.953    -185.070
  O      150.282    -409.713    -187.010
  H      147.286    -404.769    -183.946
  H      149.661    -411.691    -185.445
  H      142.997    -405.938    -179.663
  H      147.135    -409.793    -182.782
  H      144.582    -407.098    -183.712
  H      147.667    -407.126    -183.846
  H      147.306    -406.144    -186.111
  H      145.324    -408.028    -186.699
  H      147.066    -409.899    -186.336
  H      147.557    -408.566    -187.425
  H      145.022    -408.928    -176.971
  H      146.109    -409.893    -177.985
  P      145.326    -404.664    -187.003
  C      143.636    -403.962    -188.878
  O      143.836    -404.499    -187.574
  O      146.042    -405.503    -188.168
  O      146.069    -403.400    -186.726
  H      146.500    -404.891    -188.767
  H      142.588    -403.925    -189.092
  H      144.125    -404.584    -189.599
  H      144.045    -402.974    -188.923

 6  7  8  9  10  11  12  13  14  15  25  28  32  33  34  35 0
 6-311+G(2d,p)
 ****
 36  37  40 0
 6-311+G(2d,p)
 ****
 1  2  3  4  5  16  17  18  19  20  21  22  23  24 0
 3-21G
 ****
 26  27  29  30  31  38  39 41  42  43  44  45  46  47  48 0
 3-21G
 ****


