%nproc=1
%NoSave
%Mem=1900MB
#P OB98/GEN NMR

erre ene a

0 1
  C     -322.096     268.015      90.252
  O     -322.987     267.822      89.172
  P     -322.653     268.384      87.711
  C     -323.663     270.722      87.989
  O     -323.769     269.469      87.328
  C     -324.595     271.765      87.365
  O     -324.473     273.014      88.093
  C     -324.309     272.052      85.883
  O     -325.575     272.245      85.239
  C     -323.532     273.355      85.930
  O     -323.592     274.067      84.702
  C     -324.208     274.047      87.120
  N     -323.390     275.109      87.683
  C     -324.042     276.295      88.033
  O     -325.231     276.455      87.744
  N     -323.329     277.271      88.689
  C     -322.043     277.149      88.807
  N     -321.386     278.101      89.521
  C     -321.285     276.024      88.224
  C     -322.014     275.029      87.718
  O     -322.424     267.338      86.670
  O     -321.339     269.276      87.922
  H     -320.651     268.984      87.294
  H     -324.518     274.350      84.546
  H     -320.204     276.027      88.237
  H     -321.552     274.147      87.293
  H     -325.178     274.468      86.822
  H     -322.479     273.146      86.153
  H     -323.770     271.240      85.388
  H     -325.626     271.414      87.490
  H     -321.943     278.837      89.940
  H     -322.629     271.072      87.897
  H     -320.467     277.935      89.932
  H     -323.882     270.602      89.056
  P     -326.105     271.100      84.241
  C     -323.738     270.812      83.208
  O     -325.112     271.045      82.983
  O     -327.408     271.799      83.613
  O     -326.480     269.792      84.863
  H     -328.026     271.103      83.313
  H     -323.209     270.876      82.255
  H     -323.586     269.813      83.625
  H     -323.325     271.565      83.892
  H     -322.502     267.566      91.134
  H     -321.957     269.063      90.417
  H     -321.154     267.562      90.023

 3  4  5  6  7  8  9  10  11  12  13  24  27  28  29  30  32 0
 6-311+G(2d,p)
 ****
 34  35 0
 6-311+G(2d,p)
 ****
 1  2  14  15  16  17  18  19  20  21  22  23  25  26 0
 3-21G
 ****
 31  33  36  37  38  39  40  41  42  43  44  45  46 0
 3-21G
 ****


