%nproc=1
%NoSave
%Mem=1900MB
#P OB98/GEN NMR

erre ene a

0 1
  C      279.320    -194.833     515.473
  O      279.513    -193.505     515.031
  H      279.240    -195.489     514.595
  H      278.393    -194.907     516.054
  H      280.168    -195.162     516.081
  P      279.832    -192.407     516.155
  C      277.688    -192.719     517.639
  O      278.419    -191.901     516.738
  C      277.449    -191.971     518.949
  O      278.683    -191.817     519.687
  C      276.955    -190.546     518.759
  O      275.617    -190.488     518.310
  C      277.155    -190.000     520.171
  O      276.101    -190.424     521.043
  C      278.500    -190.672     520.568
  N      279.624    -189.750     520.492
  C      279.845    -188.965     521.641
  O      279.122    -189.092     522.621
  N      280.865    -188.055     521.613
  C      281.613    -187.945     520.566
  N      282.611    -187.009     520.600
  C      281.436    -188.764     519.352
  C      280.430    -189.638     519.386
  O      280.327    -191.153     515.287
  O      280.793    -192.843     517.215
  H      275.277    -190.037     520.686
  H      279.702    -190.895     514.593
  H      282.098    -188.651     518.502
  H      280.229    -190.269     518.535
  H      278.440    -191.063     521.588
  H      277.163    -188.907     520.191
  H      277.623    -189.999     518.094
  H      276.759    -192.566     519.557
  H      282.688    -186.451     521.444
  H      278.201    -193.669     517.818
  H      283.232    -186.812     519.835
  H      276.723    -192.954     517.159
  P      275.243    -189.680     516.976
  C      274.133    -187.678     518.155
  O      273.936    -188.826     517.320
  O      275.132    -190.521     515.739
  O      276.382    -188.550     516.896
  H      276.410    -187.942     517.660
  H      273.195    -187.189     518.316
  H      274.811    -187.002     517.677
  H      274.540    -187.986     519.095

 6  7  8  9  10  11  12  13  14  15  16  26  30  31  32  33  35 0
 6-311+G(2d,p)
 ****
 37  38 0
 6-311+G(2d,p)
 ****
 1  2  3  4  5  17  18  19  20  21  22  23  24  25 0
 3-21G
 ****
 27  28  29  34  36  39  40  41  42  43  44  45  46 0
 3-21G
 ****


