%nproc=1
%NoSave
%Mem=1900MB
#P OB98/GEN NMR

erre ene a

0 1
  C      -85.422     -74.305    -289.721
  O      -85.436     -75.687    -290.002
  H      -85.274     -73.758    -290.657
  H      -84.601     -74.068    -289.040
  H      -86.374     -73.996    -289.281
  P      -85.669     -76.686    -288.764
  C      -84.072     -78.149    -287.319
  O      -84.193     -77.142    -288.317
  C      -83.083     -77.710    -286.236
  O      -81.732     -77.925    -286.711
  C      -83.217     -76.235    -285.853
  O      -83.127     -76.106    -284.434
  C      -82.034     -75.568    -286.529
  O      -81.629     -74.376    -285.859
  C      -80.997     -76.698    -286.548
  N      -80.016     -76.518    -287.617
  C      -78.709     -76.204    -287.231
  O      -78.433     -76.078    -286.035
  N      -77.764     -75.988    -288.198
  C      -78.104     -76.021    -289.449
  N      -77.127     -75.774    -290.361
  C      -79.483     -76.299    -289.904
  C      -80.373     -76.543    -288.948
  O      -86.273     -77.989    -289.464
  O      -86.512     -76.142    -287.660
  H      -82.370     -73.731    -285.908
  H      -86.664     -78.608    -288.800
  H      -79.719     -76.299    -290.959
  H      -81.411     -76.756    -289.188
  H      -80.462     -76.749    -285.589
  H      -82.309     -75.297    -287.557
  H      -84.154     -75.792    -286.187
  H      -83.213     -78.361    -285.363
  H      -76.199     -75.577    -290.013
  H      -83.721     -79.073    -287.789
  H      -77.285     -75.745    -291.359
  H      -85.054     -78.326    -286.868
  P      -83.786     -74.779    -283.808
  C      -83.006     -72.361    -283.293
  O      -82.638     -73.657    -283.738
  O      -84.032     -75.174    -282.276
  O      -85.039     -74.352    -284.496
  H      -84.966     -75.426    -282.137
  H      -82.146     -71.725    -283.298
  H      -83.398     -72.423    -282.299
  H      -83.752     -71.958    -283.946

 6  7  8  9  10  11  12  13  14  15  16  26  30  31  32  33  35 0
 6-311+G(2d,p)
 ****
 37  38 0
 6-311+G(2d,p)
 ****
 1  2  3  4  5  17  18  19  20  21  22  23  24  25 0
 3-21G
 ****
 27  28  29  34  36  39  40  41  42  43  44  45  46 0
 3-21G
 ****


