%nproc=1
%NoSave
%Mem=1900MB
#P OB98/GEN NMR

erre ene a

0 1
  C      -27.209    -517.341    -133.843
  O      -27.732    -517.227    -135.153
  P      -28.642    -515.934    -135.506
  C      -27.641    -515.411    -137.865
  O      -27.739    -515.042    -136.493
  C      -27.438    -514.161    -138.746
  O      -28.663    -513.369    -138.745
  C      -26.279    -513.251    -138.304
  O      -25.663    -512.741    -139.514
  C      -26.997    -512.147    -137.552
  O      -26.206    -510.947    -137.516
  C      -28.274    -512.012    -138.397
  N      -29.359    -511.334    -137.684
  C      -29.454    -509.961    -137.875
  O      -28.644    -509.302    -138.544
  N      -30.499    -509.336    -137.233
  C      -31.380    -509.927    -136.367
  O      -32.296    -509.347    -135.813
  C      -31.148    -511.368    -136.108
  C      -30.153    -511.975    -136.768
  O      -28.572    -515.154    -134.112
  O      -30.001    -516.291    -135.999
  H      -27.714    -515.223    -133.650
  H      -26.704    -510.251    -137.022
  H      -30.613    -508.355    -137.394
  H      -31.771    -511.857    -135.379
  H      -29.940    -513.036    -136.578
  H      -28.078    -511.474    -139.329
  H      -27.219    -512.455    -136.525
  H      -25.539    -513.772    -137.697
  H      -27.257    -514.511    -139.778
  H      -28.556    -515.923    -138.197
  H      -26.801    -516.124    -137.974
  P      -24.095    -512.966    -139.707
  C      -24.172    -514.113    -142.067
  O      -23.889    -514.231    -140.687
  O      -23.699    -513.555    -138.271
  O      -23.327    -511.725    -140.051
  H      -24.294    -514.254    -137.974
  H      -23.741    -514.992    -142.577
  H      -23.696    -513.220    -142.480
  H      -25.237    -514.081    -142.238
  H      -26.634    -518.240    -133.765
  H      -28.014    -517.370    -133.139
  H      -26.583    -516.499    -133.634

 3  4  5  6  7  8  9  10  11  12  13  24  28  29  30  31  32 0
 6-311+G(2d,p)
 ****
 33  34 0
 6-311+G(2d,p)
 ****
 1  2  14  15  16  17  18  19  20  21  22  23  25  26  27 0
 3-21G
 ****
 35  36  37  38  39  40  41  42  43  44  45 0
 3-21G
 ****


