%nproc=1
%NoSave
%Mem=1900MB
#P OB98/GEN NMR

erre ene a

0 1
  C        8.057     498.260      34.131
  O        8.088     496.950      33.606
  H        7.038     498.480      34.458
  H        8.332     498.986      33.367
  H        8.726     498.350      34.994
  P        9.467     496.374      33.015
  C        8.257     495.396      30.970
  O        9.043     495.102      32.122
  C        6.981     494.540      30.939
  O        6.080     494.973      31.991
  C        6.218     494.619      29.611
  O        5.853     493.306      29.170
  C        4.955     495.401      29.965
  O        3.875     495.138      29.081
  C        4.753     494.960      31.425
  N        3.835     495.844      32.135
  C        2.535     495.919      31.614
  O        2.220     495.251      30.629
  N        1.637     496.780      32.197
  C        2.026     497.543      33.184
  N        1.093     498.391      33.699
  C        3.401     497.511      33.737
  C        4.244     496.652      33.173
  O       10.526     496.106      34.035
  O        9.913     497.443      31.908
  H        3.052     495.522      29.469
  H       10.885     497.364      31.758
  H        3.662     498.169      34.548
  H        5.277     496.567      33.510
  H        4.374     493.936      31.478
  H        5.173     496.474      29.918
  H        6.786     495.109      28.813
  H        7.258     493.501      31.178
  H        0.167     498.371      33.286
  H        8.857     495.211      30.074
  H        1.280     499.043      34.440
  H        7.971     496.455      31.001
  P        6.258     492.911      27.672
  C        4.147     491.928      26.531
  O        5.360     491.655      27.224
  O        7.731     492.299      27.828
  O        6.238     494.076      26.731
  H        8.382     492.911      27.430
  H        3.655     491.007      26.296
  H        4.364     492.457      25.627
  H        3.510     492.525      27.149

 6  7  8  9  10  11  12  13  14  15  16  26  30  31  32  33  35 0
 6-311+G(2d,p)
 ****
 37  38 0
 6-311+G(2d,p)
 ****
 1  2  3  4  5  17  18  19  20  21  22  23  24  25 0
 3-21G
 ****
 27  28  29  34  36  39  40  41  42  43  44  45  46 0
 3-21G
 ****


