%nproc=1
%NoSave
%Mem=1900MB
#P OB98/GEN NMR

erre ene a

0 1
  C     -411.260    -546.340      23.101
  O     -410.733    -545.649      21.985
  H     -410.684    -546.090      23.994
  H     -412.296    -546.028      23.253
  H     -411.240    -547.420      22.933
  P     -409.336    -546.164      21.395
  C     -410.071    -546.590      18.941
  O     -409.694    -547.160      20.185
  C     -411.592    -546.496      18.830
  O     -412.069    -545.507      19.793
  C     -412.105    -546.074      17.440
  O     -413.293    -546.813      17.153
  C     -412.464    -544.611      17.625
  O     -413.455    -544.170      16.705
  C     -412.933    -544.605      19.084
  N     -415.440    -540.193      19.403
  C     -415.836    -541.430      19.036
  N     -415.108    -542.567      19.031
  C     -413.880    -542.356      19.525
  C     -413.335    -541.151      19.948
  C     -414.177    -540.029      19.855
  N     -413.760    -538.741      20.169
  N     -412.022    -541.330      20.336
  C     -411.772    -542.603      20.127
  N     -412.863    -543.270      19.638
  O     -408.814    -547.149      22.549
  O     -408.339    -545.099      21.078
  H     -413.051    -544.102      15.817
  H     -408.312    -546.637      23.211
  H     -416.863    -541.519      18.688
  H     -410.817    -543.092      20.282
  H     -413.965    -544.960      19.196
  H     -411.570    -543.995      17.497
  H     -411.371    -546.225      16.636
  H     -412.023    -547.458      19.121
  H     -409.695    -547.222      18.128
  H     -414.397    -537.989      19.964
  H     -412.786    -538.595      20.398
  H     -409.622    -545.591      18.847
  P     -413.324    -547.668      15.795
  C     -412.609    -550.115      16.341
  O     -412.215    -548.825      15.894
  O     -412.700    -546.658      14.710
  O     -414.687    -548.132      15.392
  H     -413.103    -546.813      13.839
  H     -411.759    -550.765      16.350
  H     -413.353    -550.510      15.681
  H     -413.012    -550.042      17.329

 6  7  8  9  10  11  12  13  14  15  25  28  32  33  34  35 0
 6-311+G(2d,p)
 ****
 36  39  40 0
 6-311+G(2d,p)
 ****
 1  2  3  4  5  16  17  18  19  20  21  22  23  24 0
 3-21G
 ****
 26  27  29  30  31  37  38  41  42  43  44  45  46  47 0
 3-21G
 ****
 48 0
 3-21G
 ****


