%nproc=1
%NoSave
%Mem=1900MB
#P OB98/GEN NMR

erre ene a

0 1
  C     -645.058     -92.544     238.251
  O     -645.337     -91.298     237.641
  H     -645.871     -93.248     238.060
  H     -644.132     -92.944     237.825
  H     -644.921     -92.413     239.329
  P     -646.648     -90.528     238.152
  C     -645.731     -88.108     237.922
  O     -646.632     -89.090     237.436
  C     -645.323     -87.161     236.801
  O     -644.379     -87.805     235.923
  C     -646.474     -86.712     235.897
  O     -647.225     -85.662     236.492
  C     -645.703     -86.224     234.678
  O     -645.172     -84.908     234.929
  C     -644.556     -87.242     234.593
  N     -645.567     -88.412     229.707
  C     -645.273     -87.240     230.320
  N     -644.998     -87.014     231.619
  C     -645.015     -88.158     232.316
  C     -645.275     -89.438     231.837
  C     -645.559     -89.544     230.464
  N     -645.927     -90.750     229.866
  N     -645.223     -90.365     232.863
  C     -644.962     -89.658     233.937
  N     -644.823     -88.325     233.662
  O     -646.289     -90.195     239.684
  O     -647.925     -91.296     238.038
  H     -645.939     -84.309     235.008
  H     -646.688     -90.872     240.259
  H     -645.272     -86.366     229.669
  H     -644.864     -90.071     234.937
  H     -643.605     -86.779     234.308
  H     -646.322     -86.157     233.779
  H     -647.110     -87.559     235.606
  H     -644.821     -86.291     237.249
  H     -644.832     -88.599     238.320
  H     -646.534     -90.628     229.067
  H     -646.163     -91.487     230.524
  H     -646.219     -87.554     238.731
  P     -648.644     -86.042     237.147
  C     -648.264     -84.228     238.957
  O     -649.137     -84.746     237.958
  O     -648.239     -87.076     238.301
  O     -649.641     -86.646     236.212
  H     -648.725     -87.921     238.180
  H     -648.714     -83.372     239.415
  H     -647.335     -83.945     238.507
  H     -648.087     -84.978     239.700

 6  7  8  9  10  11  12  13  14  15  25  28  32  33  34  35 0
 6-311+G(2d,p)
 ****
 36  39  40 0
 6-311+G(2d,p)
 ****
 1  2  3  4  5  16  17  18  19  20  21  22  23  24 0
 3-21G
 ****
 26  27  29  30  31  37  38  41  42  43  44  45  46  47  48 0
 3-21G
 ****


