%nproc=1
%NoSave
%Mem=1900MB
#P OB98/GEN NMR

erre ene a

0 1
  C      147.649      80.934    -693.363
  O      148.244      81.539    -692.226
  P      149.832      81.408    -692.047
  C      149.666      79.204    -690.704
  O      150.076      80.567    -690.706
  C      149.856      78.576    -689.333
  O      151.285      78.512    -689.035
  C      149.195      79.345    -688.183
  O      148.561      78.412    -687.290
  C      150.362      79.966    -687.432
  O      150.053      80.220    -686.063
  C      151.431      78.893    -687.660
  N      155.957      77.322    -686.065
  C      154.881      76.583    -686.492
  N      155.002      75.239    -686.421
  N      153.766      77.115    -686.935
  C      153.799      78.473    -686.975
  C      154.820      79.313    -686.588
  C      156.019      78.719    -686.033
  O      156.978      79.310    -685.560
  N      154.488      80.628    -686.786
  C      153.259      80.590    -687.295
  N      152.785      79.305    -687.376
  O      150.272      82.888    -691.662
  O      150.570      80.921    -693.263
  H      149.396      80.939    -686.049
  H      150.951      83.216    -692.283
  H      156.783      76.865    -685.718
  H      152.679      81.460    -687.584
  H      151.210      78.008    -687.039
  H      150.636      80.911    -687.909
  H      155.840      74.765    -686.125
  H      148.465      80.102    -688.498
  H      154.218      74.683    -686.751
  H      149.503      77.535    -689.367
  H      150.255      78.647    -691.439
  H      148.605      79.151    -690.989
  P      146.983      78.167    -687.541
  C      146.323      79.414    -685.341
  O      146.302      78.207    -686.092
  O      146.916      76.617    -687.952
  O      146.384      79.062    -688.577
  H      146.115      76.444    -688.491
  H      146.681      80.261    -685.951
  H      146.978      79.288    -684.483
  H      145.308      79.627    -684.998
  H      146.593      81.104    -693.346
  H      147.841      79.881    -693.348
  H      148.065      81.360    -694.252

 3  4  5  6  7  8  9  10  11  12  23  26  30  31  33  0
 6-311+G(2d,p)
 ****
 35  36  37  38 0
 6-311+G(2d,p)
 ****
 1  2  13  14  15  16  17  18  19  20  21  22  24  25  27  28  29 0
 3-21G
 ****
 32  34  39  40  41  42  43  44  45  46  47  48  49 0
 3-21G
 ****


