%nproc=1
%NoSave
%Mem=1900MB
#P OB98/GEN NMR

erre ene a

0 1
  C     -290.676    -224.899     591.908
  O     -290.252    -223.555     592.058
  P     -290.182    -222.773     593.453
  C     -288.114    -221.282     592.744
  O     -289.476    -221.352     593.216
  C     -287.507    -219.906     593.031
  O     -288.238    -218.890     592.273
  C     -287.593    -219.523     594.530
  O     -286.413    -218.913     595.036
  C     -288.876    -218.714     594.590
  O     -288.975    -217.886     595.737
  C     -288.883    -217.996     593.245
  N     -293.392    -215.903     594.418
  C     -292.342    -216.250     595.262
  N     -292.522    -216.030     596.569
  N     -291.224    -216.778     594.828
  C     -291.218    -217.026     593.492
  C     -292.194    -216.738     592.571
  C     -293.406    -216.110     593.042
  O     -294.349    -215.769     592.349
  N     -291.817    -217.114     591.304
  C     -290.625    -217.652     591.458
  N     -290.217    -217.598     592.779
  O     -289.729    -223.575     594.630
  O     -291.723    -222.355     593.727
  H     -289.566    -217.151     595.532
  H     -291.831    -222.350     594.702
  H     -294.217    -215.478     594.803
  H     -290.009    -218.065     590.660
  H     -288.282    -217.073     593.255
  H     -289.739    -219.416     594.630
  H     -293.399    -215.720     596.973
  H     -287.702    -220.428     595.158
  H     -291.860    -216.484     597.185
  H     -286.456    -219.910     592.695
  H     -288.175    -221.462     591.644
  H     -287.520    -222.106     593.168
  P     -285.616    -219.244     596.377
  C     -283.265    -219.409     595.355
  O     -284.117    -218.696     596.221
  O     -285.422    -220.826     596.366
  O     -286.310    -218.802     597.641
  H     -285.870    -221.228     597.164
  H     -282.236    -219.115     595.533
  H     -283.521    -219.207     594.307
  H     -283.365    -220.490     595.530
  H     -290.628    -225.175     590.875
  H     -291.683    -224.996     592.257
  H     -290.037    -225.540     592.479

 3  4  5  6  7  8  9  10  11  12  23  26  30  31 0
 6-311+G(2d,p)
 ****
 33  35  36  37  38 0
 6-311+G(2d,p)
 ****
 1  2  13  14  15  16  17  18  19  20  21  22  24  25 0
 3-21G
 ****
 27  28  29  32  34  39  40  41  42  43  44  45  46  47  48  49 0
 3-21G
 ****


