%nproc=1
%NoSave
%Mem=1900MB
#P OB98/GEN NMR

erre ene a

0 1
  C      -89.948     248.963     297.358
  O      -88.753     248.678     296.658
  H      -89.692     249.347     298.350
  H      -90.548     248.055     297.477
  H      -90.522     249.724     296.823
  P      -88.912     248.048     295.191
  C      -89.836     250.040     293.835
  O      -88.682     249.289     294.191
  C      -89.433     251.384     293.228
  O      -88.892     252.222     294.287
  C      -88.358     251.269     292.140
  O      -88.608     252.253     291.129
  C      -87.076     251.623     292.875
  O      -86.056     252.084     291.994
  C      -87.585     252.665     293.870
  N      -84.629     255.922     296.443
  C      -85.528     256.106     295.453
  N      -86.295     255.178     294.837
  C      -86.103     253.960     295.388
  C      -85.222     253.622     296.399
  C      -84.448     254.671     296.933
  N      -83.507     254.487     297.917
  N      -85.279     252.261     296.649
  C      -86.185     251.795     295.810
  N      -86.694     252.785     295.012
  O      -90.164     247.268     294.955
  O      -87.551     247.222     295.035
  H      -85.876     251.380     291.334
  H      -86.777     247.749     295.316
  H      -85.645     257.129     295.098
  H      -86.492     250.755     295.730
  H      -87.683     253.664     293.426
  H      -86.695     250.738     293.400
  H      -88.311     250.279     291.683
  H      -90.332     251.890     292.851
  H      -90.465     250.208     294.717
  H      -82.997     255.297     298.245
  H      -83.356     253.567     298.300
  H      -90.408     249.452     293.109
  P      -89.322     251.811     289.764
  C      -91.670     252.221     290.755
  O      -90.773     252.504     289.688
  O      -89.306     250.342     289.474
  O      -88.496     252.623     288.652
  H      -88.336     252.037     287.884
  H      -92.593     252.736     290.591
  H      -91.239     252.547     291.679
  H      -91.852     251.167     290.798

 6  7  8  9  10  11  12  13  14  15  25  28  32  33  34  35 0
 6-311+G(2d,p)
 ****
 36  39  40 0
 6-311+G(2d,p)
 ****
 1  2  3  4  5  16  17  18  19  20  21  22  23  24 0
 3-21G
 ****
 26  27  29  30  31  37  38  41  42  43  44  45  46  47 0
 3-21G
 ****
 48 0
 3-21G
 ****


