%nproc=1
%NoSave
%Mem=1900MB
#P OB98/GEN NMR

erre ene a

0 1
  C      202.527     -22.929    -179.065
  O      201.877     -22.789    -180.320
  H      202.386     -22.009    -178.492
  H      203.597     -23.099    -179.206
  H      202.086     -23.763    -178.506
  P      201.997     -24.035    -181.321
  C      200.045     -25.039    -179.931
  O      201.289     -25.271    -180.577
  C      198.919     -25.758    -180.666
  O      199.342     -27.076    -181.090
  C      197.656     -25.961    -179.832
  O      196.841     -24.795    -179.852
  C      197.009     -27.134    -180.561
  O      196.295     -26.706    -181.742
  C      198.216     -27.986    -180.935
  N      197.278     -32.737    -179.496
  C      196.813     -32.021    -180.578
  N      195.915     -32.664    -181.375
  N      197.178     -30.806    -180.863
  C      198.049     -30.293    -179.959
  C      198.608     -30.893    -178.858
  C      198.202     -32.264    -178.581
  O      198.639     -32.973    -177.661
  N      199.472     -30.059    -178.204
  C      199.416     -28.937    -178.894
  N      198.555     -29.018    -179.952
  O      203.552     -24.423    -181.273
  O      201.541     -23.781    -182.724
  H      195.987     -27.493    -182.233
  H      203.817     -24.794    -182.135
  H      196.973     -33.686    -179.340
  H      199.961     -28.033    -178.658
  H      198.086     -28.502    -181.899
  H      196.281     -27.641    -179.929
  H      195.364     -33.436    -181.031
  H      197.902     -26.254    -178.806
  H      195.553     -32.135    -182.155
  H      198.693     -25.180    -181.572
  H      199.834     -23.959    -179.930
  H      200.103     -25.385    -178.896
  P      196.304     -24.242    -178.442
  C      197.743     -22.068    -178.528
  O      197.454     -23.294    -177.847
  O      196.368     -25.527    -177.482
  O      194.935     -23.647    -178.480
  H      195.816     -25.391    -176.693
  H      198.526     -21.551    -178.014
  H      196.865     -21.456    -178.549
  H      198.053     -22.281    -179.530

 6  7  8  9  10  11  12  13  14  15  26  29  33  34 0
 6-311+G(2d,p)
 ****
 36  38  39  40  41 0
 6-311+G(2d,p)
 ****
 1  2  3  4  5  16  17  18  19  20  21  22  23  24  25 0
 3-21G
 ****
 27  28  30  31  32  35  37  42  43  44  45  46  47 0
 3-21G
 ****
 48  49 0
 3-21G
 ****


