%nproc=1
%NoSave
%Mem=1900MB
#P OB98/GEN NMR

erre ene a

0 1
  C     2163.677     118.882     254.704
  O     2164.084     119.949     253.859
  P     2162.933     120.941     253.325
  C     2163.671     123.386     253.916
  O     2162.974     122.212     254.306
  C     2164.876     123.595     254.837
  O     2165.853     122.529     254.653
  C     2165.627     124.874     254.591
  O     2164.939     126.006     255.094
  C     2166.962     124.599     255.290
  O     2166.829     124.809     256.707
  C     2167.154     123.093     254.992
  N     2168.125     122.830     253.936
  C     2169.422     122.532     254.370
  O     2169.749     122.514     255.563
  N     2170.335     122.289     253.388
  C     2170.098     122.340     252.051
  O     2170.956     122.095     251.214
  C     2168.730     122.696     251.662
  C     2167.825     122.932     252.595
  O     2161.608     120.142     253.753
  O     2163.058     121.238     251.868
  H     2161.712     119.659     254.594
  H     2166.556     125.750     256.806
  H     2171.265     122.069     253.679
  H     2168.522     122.770     250.586
  H     2166.813     123.201     252.320
  H     2167.469     122.563     255.902
  H     2167.777     125.233     254.937
  H     2165.801     125.006     253.517
  H     2164.533     123.557     255.878
  H     2163.017     124.254     253.996
  H     2163.976     123.293     252.879
  P     2163.818     126.677     254.127
  C     2161.538     126.421     255.381
  O     2162.428     125.923     254.418
  O     2164.261     126.115     252.697
  O     2163.772     128.170     254.210
  H     2164.497     125.165     252.725
  H     2160.549     126.010     255.193
  H     2161.457     127.506     255.327
  H     2161.861     126.121     256.384
  H     2164.532     118.304     254.985
  H     2162.981     118.259     254.182
  H     2163.211     119.280     255.581

 3  4  5  6  7  8  9  10  11  12  13  24  28  29  30  31  32 0
 6-311+G(2d,p)
 ****
 33  34 0
 6-311+G(2d,p)
 ****
 1  2  14  15  16  17  18  19  20  21  22  23  25  26  27 0
 3-21G
 ****
 35  36  37  38  39  40  41  42  43  44  45 0
 3-21G
 ****


