%nproc=1
%NoSave
%Mem=1900MB
#P OB98/GEN NMR

erre ene a

0 1
  C     1191.146    -789.159    -283.648
  O     1191.576    -788.357    -284.729
  H     1191.932    -789.234    -282.892
  H     1190.263    -788.684    -283.195
  H     1190.865    -790.155    -283.997
  P     1192.877    -788.886    -285.522
  C     1191.700    -789.649    -287.707
  O     1192.379    -790.050    -286.513
  C     1191.805    -790.733    -288.765
  O     1193.211    -791.092    -288.893
  C     1191.047    -792.028    -288.437
  O     1190.217    -792.419    -289.552
  C     1192.107    -793.093    -288.219
  O     1191.709    -794.366    -288.668
  C     1193.276    -792.517    -289.049
  N     1196.579    -796.393    -289.453
  C     1195.614    -795.949    -290.287
  N     1194.809    -794.854    -290.152
  C     1195.157    -794.152    -289.047
  C     1196.139    -794.459    -288.121
  C     1196.868    -795.641    -288.348
  N     1197.807    -796.118    -287.477
  N     1196.196    -793.510    -287.104
  C     1195.186    -792.676    -287.405
  N     1194.544    -793.017    -288.572
  O     1193.688    -789.677    -284.383
  O     1193.696    -787.806    -286.138
  H     1191.586    -794.330    -289.648
  H     1194.570    -789.261    -284.277
  H     1195.449    -796.571    -291.165
  H     1194.897    -791.816    -286.817
  H     1193.191    -792.751    -290.113
  H     1192.332    -793.129    -287.151
  H     1190.408    -791.916    -287.533
  H     1191.477    -790.327    -289.713
  H     1192.147    -788.706    -288.084
  H     1198.216    -797.040    -287.636
  H     1197.956    -795.642    -286.596
  H     1190.646    -789.465    -287.452
  P     1188.656    -792.077    -289.434
  C     1188.585    -790.483    -291.503
  O     1188.421    -790.599    -290.078
  O     1188.407    -791.824    -287.883
  O     1187.734    -793.145    -289.973
  H     1187.728    -792.440    -287.535
  H     1188.405    -789.471    -291.802
  H     1187.889    -791.129    -291.996
  H     1189.583    -790.762    -291.771

 6  7  8  9  10  11  12  13  14  15  25  28  32  33  34  35 0
 6-311+G(2d,p)
 ****
 36  39  40 0
 6-311+G(2d,p)
 ****
 1  2  3  4  5  16  17  18  19  20  21  22  23  24 0
 3-21G
 ****
 26  27  29  30  31  37  38  41  42  43  44  45  46  47  48 0
 3-21G
 ****


