%nproc=1
%NoSave
%Mem=1900MB
#P OB98/GEN NMR

erre ene a

0 1
  C      -52.951     -69.581    -123.018
  O      -52.419     -68.273    -122.949
  H      -52.146     -70.297    -122.833
  H      -53.369     -69.764    -124.011
  H      -53.725     -69.715    -122.257
  P      -53.453     -67.070    -123.178
  C      -53.099     -64.507    -122.855
  O      -52.565     -65.741    -123.311
  C      -52.020     -63.692    -122.133
  O      -51.890     -64.194    -120.770
  C      -50.628     -63.793    -122.777
  O      -49.923     -62.572    -122.498
  C      -50.005     -64.933    -121.988
  O      -48.612     -64.986    -122.190
  C      -50.508     -64.576    -120.592
  N      -47.592     -66.727    -116.986
  C      -47.439     -65.597    -117.709
  N      -48.264     -65.082    -118.643
  C      -49.358     -65.851    -118.788
  C      -49.656     -67.024    -118.115
  C      -48.709     -67.468    -117.176
  N      -48.856     -68.622    -116.444
  N      -50.870     -67.534    -118.538
  C      -51.296     -66.680    -119.447
  N      -50.412     -65.654    -119.636
  O      -54.160     -66.915    -121.751
  O      -54.444     -67.274    -124.274
  H      -48.243     -64.086    -122.309
  H      -54.997     -67.416    -121.739
  H      -46.532     -65.032    -117.514
  H      -52.223     -66.761    -120.001
  H      -49.976     -63.714    -120.175
  H      -50.408     -65.897    -122.313
  H      -50.660     -63.957    -123.857
  H      -52.351     -62.650    -122.056
  H      -53.926     -64.719    -122.169
  H      -53.477     -63.936    -123.708
  H      -48.124     -68.879    -115.802
  H      -49.677     -69.193    -116.587
  P      -49.667     -61.526    -123.692
  C      -50.352     -59.002    -123.683
  O      -49.609     -60.047    -123.075
  O      -51.088     -61.518    -124.437
  O      -48.574     -61.884    -124.644
  H      -50.961     -61.298    -125.378
  H      -50.196     -58.092    -123.142
  H      -51.393     -59.250    -123.670
  H      -50.028     -58.876    -124.695

 6  7  8  9  10  11  12  13  14  15  25  28  32  33  34  35 0
 6-311+G(2d,p)
 ****
 36  37  40 0
 6-311+G(2d,p)
 ****
 1  2  3  4  5  16  17  18  19  20  21  22  23  24 0
 3-21G
 ****
 26  27  29  30  31  38  39 41  42  43  44  45  46  47  48 0
 3-21G
 ****


