%nproc=1
%NoSave
%Mem=1900MB
#P OB98/GEN NMR

erre ene a

0 1
  C       35.123      47.416     -25.645
  O       34.485      47.498     -26.903
  P       35.325      47.581     -28.266
  C       36.733      45.861     -29.558
  O       36.254      46.271     -28.287
  C       38.160      45.317     -29.466
  O       39.061      46.384     -29.060
  C       38.340      44.157     -28.478
  O       39.347      43.307     -29.036
  C       38.863      44.861     -27.241
  O       39.513      43.974     -26.340
  C       39.755      45.935     -27.876
  N       40.036      47.028     -26.953
  C       41.245      46.968     -26.256
  O       41.982      45.987     -26.375
  N       41.568      47.991     -25.400
  C       40.709      48.936     -25.181
  N       41.085      49.925     -24.327
  C       39.370      48.971     -25.800
  C       39.109      48.004     -26.677
  O       36.047      48.866     -28.490
  O       34.242      47.253     -29.397
  H       40.354      43.677     -26.751
  H       33.669      48.043     -29.565
  H       38.667      49.748     -25.544
  H       38.155      47.947     -27.182
  H       40.711      45.501     -28.200
  H       38.030      45.329     -26.704
  H       37.422      43.598     -28.288
  H       38.466      45.002     -30.472
  H       42.018      49.870     -23.937
  H       36.732      46.733     -30.218
  H       40.527      50.746     -24.152
  H       36.060      45.114     -29.990
  P       39.461      41.765     -28.614
  C       37.908      39.734     -28.705
  O       37.988      41.147     -28.696
  O       40.179      41.513     -27.329
  O       40.216      41.072     -29.848
  H       40.551      40.198     -29.573
  H       36.881      39.434     -28.479
  H       38.578      39.298     -27.958
  H       38.179      39.359     -29.695
  H       34.384      47.370     -24.873
  H       35.737      48.280     -25.500
  H       35.731      46.536     -25.610

 3  4  5  6  7  8  9  10  11  12  13  23  27  28  29  30  32 0
 6-311+G(2d,p)
 ****
 34  35 0
 6-311+G(2d,p)
 ****
 1  2  14  15  16  17  18  19  20  21  22  24  25  26 0
 3-21G
 ****
 31  33  36  37  38  39  40  41  42  43  44  45  46 0
 3-21G
 ****


