%nproc=1
%NoSave
%Mem=1900MB
#P OB98/GEN NMR

erre ene a

0 1
  C     -276.646    -225.414      76.832
  O     -276.601    -225.910      78.157
  H     -277.591    -224.888      76.685
  H     -276.588    -226.243      76.118
  H     -275.822    -224.717      76.662
  P     -275.305    -226.772      78.552
  C     -273.927    -224.698      79.274
  O     -274.043    -225.795      78.377
  C     -272.958    -225.034      80.404
  O     -271.673    -225.429      79.877
  C     -272.701    -223.885      81.371
  O     -273.717    -223.814      82.357
  C     -271.348    -224.280      81.950
  O     -271.499    -225.283      82.977
  C     -270.635    -224.865      80.724
  N     -267.815    -224.247      76.577
  C     -268.415    -225.380      77.085
  N     -268.216    -226.530      76.404
  N     -269.142    -225.391      78.175
  C     -269.210    -224.186      78.784
  C     -268.657    -222.990      78.382
  C     -267.902    -222.980      77.147
  O     -267.416    -221.993      76.604
  N     -268.964    -221.981      79.260
  C     -269.673    -222.573      80.205
  N     -269.842    -223.913      79.963
  O     -275.151    -227.794      77.325
  O     -275.389    -227.498      79.851
  H     -270.619    -225.568      83.278
  H     -274.854    -228.657      77.674
  H     -267.296    -224.285      75.719
  H     -270.090    -222.078      81.076
  H     -269.958    -225.684      80.997
  H     -270.845    -223.432      82.419
  H     -267.452    -226.638      75.750
  H     -272.601    -222.930      80.837
  H     -268.597    -227.373      76.818
  H     -273.367    -225.901      80.938
  H     -274.913    -224.476      79.694
  H     -273.566    -223.823      78.726
  P     -273.980    -222.404      83.074
  C     -275.804    -221.750      81.339
  O     -274.584    -221.396      81.975
  O     -272.496    -221.844      83.323
  O     -274.741    -222.486      84.354
  H     -272.266    -221.929      84.265
  H     -276.076    -220.987      80.640
  H     -276.574    -221.850      82.075
  H     -275.681    -222.679      80.823

 6  7  8  9  10  11  12  13  14  15  26  29  33  34 0
 6-311+G(2d,p)
 ****
 36  38  39  40  41 0
 6-311+G(2d,p)
 ****
 1  2  3  4  5  16  17  18  19  20  21  22  23  24  25 0
 3-21G
 ****
 27  28  30  31  32  35  37  42  43  44  45  46  47 0
 3-21G
 ****
 48  49 0
 3-21G
 ****


