%nproc=1
%NoSave
%Mem=1900MB
#P OB98/GEN NMR

erre ene a

0 1
  C     -333.581    -405.224     -50.098
  O     -333.491    -405.254     -48.687
  P     -334.155    -406.522     -47.943
  C     -336.330    -405.130     -47.524
  O     -335.742    -406.316     -48.041
  C     -337.490    -405.489     -46.595
  O     -338.406    -406.383     -47.260
  C     -337.065    -406.189     -45.312
  O     -336.619    -405.247     -44.355
  C     -338.351    -406.907     -44.918
  O     -339.259    -406.004     -44.252
  C     -338.901    -407.342     -46.284
  N     -340.682    -411.902     -47.556
  C     -341.345    -410.797     -47.045
  N     -342.683    -410.914     -46.897
  N     -340.750    -409.681     -46.718
  C     -339.407    -409.710     -46.908
  C     -338.643    -410.746     -47.387
  C     -339.317    -411.957     -47.798
  O     -338.795    -412.923     -48.343
  N     -337.312    -410.413     -47.421
  C     -337.285    -409.169     -46.987
  N     -338.533    -408.685     -46.680
  O     -333.817    -406.248     -46.402
  O     -333.675    -407.860     -48.416
  H     -339.236    -405.146     -44.707
  H     -333.038    -406.769     -46.124
  H     -341.201    -412.726     -47.805
  H     -336.391    -408.567     -46.898
  H     -340.002    -407.293     -46.318
  H     -338.169    -407.732     -44.229
  H     -343.205    -411.749     -47.107
  H     -336.278    -406.931     -45.524
  H     -343.189    -410.115     -46.519
  H     -338.030    -404.563     -46.365
  H     -336.703    -404.523     -48.360
  H     -335.569    -404.549     -46.991
  P     -335.371    -405.655     -43.435
  C     -336.639    -405.910     -41.183
  O     -335.940    -406.549     -42.234
  O     -334.963    -404.276     -42.730
  O     -334.218    -406.243     -44.188
  H     -333.993    -404.232     -42.629
  H     -337.377    -406.612     -40.777
  H     -337.160    -405.010     -41.535
  H     -335.936    -405.635     -40.395
  H     -333.106    -404.339     -50.467
  H     -334.610    -405.225     -50.390
  H     -333.095    -406.086     -50.505

 3  4  5  6  7  8  9  10  11  12  23  26  30  31 0
 6-311+G(2d,p)
 ****
 33  35  36  37  38 0
 6-311+G(2d,p)
 ****
 1  2  13  14  15  16  17  18  19  20  21  22  24  25 0
 3-21G
 ****
 27  28  29  32  34  39  40  41  42  43  44  45  46  47  48  49 0
 3-21G
 ****


