%nproc=1
%NoSave
%Mem=1900MB
#P OB98/GEN NMR

erre ene a

0 1
  C     -153.273      98.461       5.138
  O     -151.994      97.856       5.174
  P     -151.795      96.334       4.727
  C     -151.279      96.998       2.306
  O     -152.132      96.243       3.158
  C     -150.226      96.109       1.647
  O     -150.881      94.950       1.058
  C     -149.417      96.792       0.531
  O     -148.099      96.238       0.579
  C     -150.121      96.316      -0.731
  O     -149.308      96.418      -1.892
  C     -150.473      94.888      -0.325
  N     -151.590      92.050      -4.431
  C     -150.411      92.474      -3.926
  N     -150.197      93.249      -2.842
  C     -151.363      93.585      -2.261
  C     -152.641      93.253      -2.680
  C     -152.734      92.429      -3.818
  N     -153.926      91.957      -4.326
  N     -153.585      93.840      -1.855
  C     -152.886      94.508      -0.959
  N     -151.543      94.330      -1.127
  O     -152.496      95.325       5.575
  O     -150.209      96.124       4.770
  H     -148.930      97.317      -1.926
  H     -149.967      95.582       5.549
  H     -149.521      92.144      -4.458
  H     -153.300      95.129      -0.176
  H     -149.610      94.215      -0.393
  H     -151.024      96.916      -0.896
  H     -149.384      97.881       0.608
  H     -149.554      95.734       2.430
  H     -150.781      97.758       2.915
  H     -153.869      91.268      -5.058
  H     -154.762      92.002      -3.744
  H     -151.876      97.507       1.541
  P     -146.855      97.087       0.020
  C     -147.007      98.668       2.030
  O     -147.009      98.563       0.617
  O     -146.639      97.008      -1.454
  O     -145.605      96.496       0.837
  H     -144.776      96.739       0.382
  H     -148.001      98.417       2.414
  H     -146.762      99.695       2.314
  H     -146.268      97.993       2.473
  H     -153.198      99.475       5.473
  H     -153.940      97.923       5.778
  H     -153.648      98.443       4.136

 3  4  5  6  7  8  9  10  11  12  22  25  29  30  31  32 0
 6-311+G(2d,p)
 ****
 33  36  37 0
 6-311+G(2d,p)
 ****
 1  2  13  14  15  16  17  18  19  20  21  23  24  26 0
 3-21G
 ****
 27  28  34  35  38  39  40  41  42  43  44  45  46  47  48 0
 3-21G
 ****


