%nproc=1
%NoSave
%Mem=1900MB
#P OB98/GEN NMR

erre ene a

0 1
  C      440.827     287.025    1109.948
  O      439.398     286.919    1109.851
  P      438.679     285.744    1109.031
  C      438.899     286.717    1106.645
  O      439.309     285.696    1107.540
  C      439.715     286.717    1105.363
  O      441.140     286.853    1105.653
  C      439.570     285.445    1104.519
  O      438.384     285.457    1103.792
  C      440.852     285.504    1103.668
  O      440.695     286.397    1102.551
  C      441.882     286.094    1104.685
  N      446.579     284.085    1105.041
  C      446.100     285.152    1104.330
  N      444.832     285.595    1104.282
  C      444.038     284.884    1105.096
  C      444.375     283.816    1105.884
  C      445.729     283.414    1105.848
  N      446.232     282.340    1106.556
  N      443.299     283.317    1106.583
  C      442.296     284.125    1106.221
  N      442.697     285.083    1105.321
  O      437.190     285.803    1109.040
  O      439.213     284.388    1109.701
  H      439.921     286.095    1102.054
  H      438.547     283.692    1109.593
  H      446.818     285.663    1103.705
  H      441.270     284.020    1106.574
  H      442.571     286.802    1104.183
  H      441.146     284.524    1103.287
  H      439.625     284.565    1105.171
  H      439.430     287.584    1104.761
  H      439.013     287.708    1107.150
  H      447.200     282.093    1106.461
  H      445.588     281.777    1107.113
  H      437.838     286.583    1106.404
  P      437.321     284.276    1103.937
  C      438.096     282.675    1102.067
  O      438.061     282.923    1103.479
  O      435.982     284.513    1103.324
  O      437.216     284.060    1105.532
  H      436.314     283.746    1105.759
  H      437.133     282.276    1101.731
  H      438.886     281.960    1101.876
  H      438.339     283.592    1101.524
  H      441.082     287.879    1110.540
  H      441.244     287.132    1108.968
  H      441.220     286.142    1110.408

 3  4  5  6  7  8  9  10  11  12  22  25  29  30  31  32 0
 6-311+G(2d,p)
 ****
 33  36  37 0
 6-311+G(2d,p)
 ****
 1  2  13  14  15  16  17  18  19  20  21  23  24  26 0
 3-21G
 ****
 27  28  34  35  38  39  40  41  42  43  44  45  46  47  48 0
 3-21G
 ****


