%nproc=1
%NoSave
%Mem=1900MB
#P OB98/GEN NMR

erre ene a

0 1
  C      -65.822     -59.512      93.825
  O      -67.067     -60.177      93.840
  H      -65.055     -60.216      93.490
  H      -65.561     -59.163      94.827
  H      -65.848     -58.668      93.130
  P      -68.358     -59.384      94.360
  C      -69.865     -60.320      92.486
  O      -69.640     -60.226      93.890
  C      -69.983     -61.791      92.070
  O      -68.669     -62.389      92.186
  C      -70.953     -62.579      92.962
  O      -71.952     -63.277      92.223
  C      -70.024     -63.403      93.846
  O      -70.587     -64.600      94.340
  C      -68.786     -63.595      92.962
  N      -67.558     -63.848      93.712
  C      -67.339     -65.147      94.159
  O      -68.084     -66.103      93.952
  N      -66.184     -65.339      94.873
  C      -65.261     -64.387      95.181
  O      -64.241     -64.621      95.820
  C      -65.559     -63.029      94.701
  C      -66.677     -62.825      94.001
  O      -68.405     -57.932      94.020
  O      -68.340     -59.614      95.945
  H      -71.441     -64.374      94.763
  H      -68.007     -58.811      96.388
  H      -66.009     -66.280      95.192
  H      -64.853     -62.246      94.937
  H      -66.927     -61.835      93.629
  H      -68.932     -64.429      92.275
  H      -69.750     -62.794      94.717
  H      -71.537     -61.902      93.597
  H      -70.276     -61.836      91.015
  H      -69.021     -59.847      91.977
  H      -70.785     -59.786      92.225
  P      -73.476     -63.426      92.672
  C      -74.641     -61.678      91.104
  O      -74.403     -63.040      91.427
  O      -73.823     -62.817      93.988
  O      -73.668     -65.023      92.808
  H      -74.317     -65.164      93.528
  H      -75.279     -61.621      90.247
  H      -73.711     -61.195      90.889
  H      -75.112     -61.192      91.933

 6  7  8  9  10  11  12  13  14  15  16  26  31  32  33  34  35 0
 6-311+G(2d,p)
 ****
 36  37 0
 6-311+G(2d,p)
 ****
 1  2  3  4  5  17  18  19  20  21  22  23  24  25 0
 3-21G
 ****
 27  28  29  30  38  39  40  41  42  43  44  45 0
 3-21G
 ****


