%nproc=1
%NoSave
%Mem=1900MB
#P OB98/GEN NMR

erre ene a

0 1
  C     -385.554      88.904      85.561
  O     -386.704      89.027      86.382
  P     -387.482      87.682      86.785
  C     -388.348      88.328      89.184
  O     -387.423      87.608      88.385
  C     -387.603      89.276      90.129
  O     -386.947      90.311      89.366
  C     -388.494      90.007      91.123
  O     -388.883      89.169      92.201
  C     -387.599      91.176      91.518
  O     -386.634      90.755      92.498
  C     -386.895      91.500      90.185
  N     -387.477      92.645      89.491
  C     -386.949      93.894      89.812
  O     -386.043      94.049      90.628
  N     -387.514      94.963      89.170
  C     -388.574      94.917      88.311
  O     -389.069      95.912      87.799
  C     -389.110      93.575      88.036
  C     -388.546      92.520      88.628
  O     -386.437      86.579      86.287
  O     -388.840      87.588      86.181
  H     -385.524      86.917      86.290
  H     -387.137      90.305      93.206
  H     -387.133      95.876      89.369
  H     -389.956      93.500      87.365
  H     -388.936      91.526      88.444
  H     -385.832      91.705      90.358
  H     -388.160      92.011      91.949
  H     -389.388      90.387      90.614
  H     -386.832      88.698      90.655
  H     -388.939      87.619      89.770
  H     -389.022      88.890      88.530
  P     -390.445      89.177      92.591
  C     -390.649      86.572      92.561
  O     -391.055      87.811      92.022
  O     -391.005      90.304      91.602
  O     -390.699      89.442      94.038
  H     -390.632      90.240      90.707
  H     -391.403      85.819      92.317
  H     -390.544      86.625      93.648
  H     -389.697      86.273      92.117
  H     -385.143      89.874      85.376
  H     -385.826      88.448      84.632
  H     -384.826      88.296      86.056

 3  4  5  6  7  8  9  10  11  12  13  24  28  29  30  31  32 0
 6-311+G(2d,p)
 ****
 33  34 0
 6-311+G(2d,p)
 ****
 1  2  14  15  16  17  18  19  20  21  22  23  25  26  27 0
 3-21G
 ****
 35  36  37  38  39  40  41  42  43  44  45 0
 3-21G
 ****


