%nproc=1
%NoSave
%Mem=1900MB
#P OB98/GEN NMR

erre ene a

0 1
  C       24.241     -11.633    -510.203
  O       25.492     -11.913    -510.807
  H       24.274     -10.625    -509.785
  H       24.047     -12.345    -509.396
  H       23.444     -11.685    -510.951
  P       25.645     -13.349    -511.504
  C       25.307     -12.732    -513.998
  O       24.721     -13.251    -512.814
  C       24.605     -13.290    -515.235
  O       24.540     -14.727    -515.179
  C       23.162     -12.819    -515.397
  O       23.116     -11.523    -515.971
  C       22.623     -13.876    -516.346
  O       23.033     -13.573    -517.697
  C       23.329     -15.158    -515.861
  N       20.117     -19.143    -515.511
  C       20.580     -18.460    -516.574
  N       21.399     -17.382    -516.590
  C       21.740     -17.023    -515.343
  C       21.341     -17.628    -514.157
  C       20.501     -18.747    -514.272
  N       20.033     -19.450    -513.179
  N       21.892     -16.985    -513.072
  C       22.650     -16.034    -513.591
  N       22.563     -15.997    -514.961
  O       25.420     -14.525    -510.619
  O       27.122     -13.234    -512.122
  H       22.558     -12.773    -517.975
  H       27.275     -12.336    -512.471
  H       20.256     -18.820    -517.547
  H       23.288     -15.373    -513.027
  H       23.636     -15.792    -516.700
  H       21.532     -13.916    -516.345
  H       22.614     -12.872    -514.452
  H       25.206     -13.023    -516.114
  H       26.375     -12.985    -514.035
  H       19.303     -20.125    -513.340
  H       20.222     -19.078    -512.262
  H       25.215     -11.648    -513.966
  P       21.745     -10.690    -515.999
  C       22.019      -9.147    -513.958
  O       21.401     -10.323    -514.473
  O       20.628     -11.334    -516.743
  O       22.145      -9.275    -516.629
  H       21.435      -8.953    -517.216
  H       21.720      -9.003    -512.941
  H       21.719      -8.302    -514.541
  H       23.083      -9.253    -514.005

 6  7  8  9  10  11  12  13  14  15  25  28  32  33  34  35 0
 6-311+G(2d,p)
 ****
 36  39  40 0
 6-311+G(2d,p)
 ****
 1  2  3  4  5  16  17  18  19  20  21  22  23  24 0
 3-21G
 ****
 26  27  29  30  31  37  38  41  42  43  44  45  46  47 0
 3-21G
 ****
 48 0
 3-21G
 ****


