%nproc=1
%NoSave
%Mem=1900MB
#P OB98/GEN NMR

erre ene a

0 1
  C      -24.188     329.513     -45.616
  O      -24.602     329.303     -44.283
  H      -23.537     330.390     -45.646
  H      -25.058     329.703     -46.249
  H      -23.631     328.654     -45.999
  P      -25.323     327.923     -43.905
  C      -23.035     326.741     -43.781
  O      -24.329     326.750     -44.366
  C      -22.491     325.312     -43.684
  O      -23.422     324.507     -42.905
  C      -22.313     324.620     -45.044
  O      -21.214     323.708     -44.919
  C      -23.616     323.858     -45.175
  O      -23.526     322.840     -46.148
  C      -23.825     323.397     -43.731
  N      -25.203     322.987     -43.469
  C      -25.613     321.787     -44.035
  O      -24.887     321.097     -44.752
  N      -26.906     321.415     -43.791
  C      -27.827     322.147     -43.100
  O      -28.984     321.781     -42.938
  C      -27.350     323.431     -42.560
  C      -26.079     323.786     -42.763
  O      -26.728     327.774     -44.384
  O      -25.227     327.853     -42.308
  H      -22.809     322.212     -45.915
  H      -25.990     327.362     -41.948
  H      -27.215     320.542     -44.185
  H      -28.059     324.040     -42.016
  H      -25.699     324.725     -42.378
  H      -23.170     322.548     -43.496
  H      -24.425     324.529     -45.482
  H      -22.138     325.319     -45.863
  H      -21.548     325.333     -43.125
  H      -23.115     327.176     -42.779
  H      -22.358     327.356     -44.383
  P      -19.759     324.039     -45.512
  C      -18.445     322.983     -43.564
  O      -18.725     324.175     -44.292
  O      -19.733     325.187     -46.467
  O      -19.300     322.688     -46.239
  H      -18.687     322.899     -46.967
  H      -17.748     323.198     -42.781
  H      -18.026     322.252     -44.224
  H      -19.351     322.603     -43.140

 6  7  8  9  10  11  12  13  14  15  16  26  31  32  33  34  35 0
 6-311+G(2d,p)
 ****
 36  37 0
 6-311+G(2d,p)
 ****
 1  2  3  4  5  17  18  19  20  21  22  23  24  25 0
 3-21G
 ****
 27  28  29  30  38  39  40  41  42  43  44  45 0
 3-21G
 ****


