%nproc=1
%NoSave
%Mem=1900MB
#P OB98/GEN NMR

erre ene a

0 1
  C     -125.250    -303.144      14.783
  O     -124.372    -303.191      15.886
  H     -126.127    -302.549      15.057
  H     -125.576    -304.155      14.527
  H     -124.771    -302.684      13.912
  P     -122.845    -303.602      15.640
  C     -123.179    -306.043      16.416
  O     -122.806    -305.184      15.347
  C     -122.897    -307.512      16.096
  O     -123.263    -308.351      17.216
  C     -123.722    -308.017      14.903
  O     -123.171    -307.742      13.626
  C     -123.769    -309.516      15.166
  O     -122.607    -310.170      14.643
  C     -123.779    -309.594      16.700
  N     -127.626    -312.910      17.308
  C     -126.452    -313.058      16.588
  N     -126.316    -314.213      15.898
  N     -125.517    -312.148      16.540
  C     -125.831    -311.009      17.200
  C     -126.969    -310.735      17.937
  C     -127.976    -311.780      18.028
  O     -129.038    -311.693      18.641
  N     -126.936    -309.472      18.469
  C     -125.821    -308.949      17.996
  N     -125.104    -309.854      17.243
  O     -122.186    -303.508      17.103
  O     -122.100    -302.749      14.660
  H     -122.746    -311.134      14.694
  H     -121.233    -303.327      17.025
  H     -128.302    -313.659      17.329
  H     -125.473    -307.939      18.188
  H     -123.123    -310.388      17.073
  H     -124.634    -309.985      14.692
  H     -127.059    -314.892      15.808
  H     -124.746    -307.624      14.961
  H     -125.610    -314.248      15.158
  H     -121.822    -307.647      15.929
  H     -124.249    -305.896      16.580
  H     -122.666    -305.748      17.336
  P     -124.062    -307.010      12.514
  C     -124.801    -309.138      11.208
  O     -125.173    -308.060      12.039
  O     -123.060    -306.920      11.264
  O     -124.581    -305.663      12.906
  H     -122.632    -306.049      11.235
  H     -125.662    -309.734      10.990
  H     -124.069    -309.737      11.708
  H     -124.390    -308.760      10.296

 6  7  8  9  10  11  12  13  14  15  26  29  33  34 0
 6-311+G(2d,p)
 ****
 36  38  39  40  41 0
 6-311+G(2d,p)
 ****
 1  2  3  4  5  16  17  18  19  20  21  22  23  24  25 0
 3-21G
 ****
 27  28  30  31  32  35  37  42  43  44  45  46  47 0
 3-21G
 ****
 48  49 0
 3-21G
 ****


