%nproc=1
%NoSave
%Mem=1900MB
#P OB98/GEN NMR

erre ene a

0 1
  C     -368.961     -13.068    -374.133
  O     -368.225     -13.743    -375.134
  H     -368.676     -13.431    -373.141
  H     -368.738     -12.000    -374.196
  H     -370.034     -13.217    -374.292
  P     -368.334     -15.344    -375.139
  C     -367.646     -15.790    -377.599
  O     -368.697     -15.770    -376.645
  C     -368.212     -15.689    -379.009
  O     -368.673     -14.345    -379.266
  C     -367.214     -15.994    -380.122
  O     -367.021     -17.388    -380.294
  C     -367.928     -15.373    -381.315
  O     -368.941     -16.277    -381.798
  C     -368.585     -14.126    -380.699
  N     -368.957      -9.166    -381.980
  C     -369.895     -10.129    -381.820
  N     -369.723     -11.425    -381.493
  C     -368.422     -11.702    -381.305
  C     -367.355     -10.827    -381.433
  C     -367.660      -9.504    -381.794
  N     -366.695      -8.535    -381.972
  N     -366.165     -11.462    -381.147
  C     -366.503     -12.704    -380.855
  N     -367.856     -12.897    -380.941
  O     -369.693     -15.629    -374.339
  O     -367.177     -16.064    -374.530
  H     -368.523     -17.154    -381.866
  H     -369.585     -16.447    -373.814
  H     -370.924      -9.815    -381.975
  H     -365.807     -13.482    -380.573
  H     -369.610     -13.994    -381.064
  H     -367.259     -15.154    -382.152
  H     -366.263     -15.472    -379.956
  H     -369.083     -16.357    -379.073
  H     -367.085     -16.727    -377.503
  H     -366.984      -7.573    -382.037
  H     -365.727      -8.795    -381.823
  H     -366.969     -14.950    -377.397
  P     -365.570     -17.986    -379.946
  C     -365.941     -20.549    -379.763
  O     -365.847     -19.305    -379.073
  O     -365.001     -16.945    -378.867
  O     -364.651     -18.139    -381.109
  H     -364.027     -16.957    -378.873
  H     -366.126     -21.334    -379.060
  H     -365.023     -20.741    -380.278
  H     -366.744     -20.506    -380.469

 6  7  8  9  10  11  12  13  14  15  25  28  32  33  34  35 0
 6-311+G(2d,p)
 ****
 36  39  40 0
 6-311+G(2d,p)
 ****
 1  2  3  4  5  16  17  18  19  20  21  22  23  24 0
 3-21G
 ****
 26  27  29  30  31  37  38  41  42  43  44  45  46  47  48 0
 3-21G
 ****


