%nproc=1
%NoSave
%Mem=1900MB
#P OB98/GEN NMR

erre ene a

0 1
  C     -197.225    -203.855    -105.089
  O     -197.521    -202.796    -105.981
  P     -196.505    -202.555    -107.201
  C     -195.244    -200.622    -105.995
  O     -196.024    -201.029    -107.112
  C     -194.071    -199.763    -106.458
  O     -193.106    -200.574    -107.158
  C     -194.445    -198.651    -107.429
  O     -195.069    -197.570    -106.755
  C     -193.079    -198.328    -108.024
  O     -192.328    -197.505    -107.116
  C     -192.438    -199.722    -108.127
  N     -190.784    -199.565    -112.968
  C     -190.477    -198.816    -111.887
  N     -190.976    -198.905    -110.637
  C     -191.879    -199.895    -110.555
  C     -192.309    -200.723    -111.575
  C     -191.719    -200.535    -112.834
  N     -192.039    -201.298    -113.937
  N     -193.267    -201.605    -111.120
  C     -193.404    -201.321    -109.842
  N     -192.576    -200.304    -109.450
  O     -197.462    -202.568    -108.481
  O     -195.406    -203.565    -107.312
  H     -191.464    -197.323    -107.537
  H     -197.006    -202.956    -109.253
  H     -189.728    -198.045    -112.045
  H     -194.080    -201.823    -109.164
  H     -191.371    -199.714    -107.879
  H     -193.140    -197.793    -108.978
  H     -195.113    -199.033    -108.211
  H     -193.586    -199.343    -105.567
  H     -194.852    -201.507    -105.482
  H     -191.679    -200.998    -114.830
  H     -192.833    -201.921    -113.868
  H     -195.882    -200.073    -105.297
  P     -196.472    -197.051    -107.338
  C     -195.603    -195.996    -109.512
  O     -196.072    -195.754    -108.198
  O     -197.146    -196.414    -106.037
  O     -197.275    -198.083    -108.051
  H     -196.538    -195.822    -105.562
  H     -195.420    -195.035    -109.999
  H     -196.351    -196.550    -110.086
  H     -194.666    -196.559    -109.478
  H     -197.978    -203.903    -104.330
  H     -196.271    -203.683    -104.635
  H     -197.203    -204.779    -105.628

 3  4  5  6  7  8  9  10  11  12  22  25  29  30  31  32 0
 6-311+G(2d,p)
 ****
 33  36  37 0
 6-311+G(2d,p)
 ****
 1  2  13  14  15  16  17  18  19  20  21  23  24  26 0
 3-21G
 ****
 27  28  34  35  38  39  40  41  42  43  44  45  46  47  48 0
 3-21G
 ****


