%nproc=1
%NoSave
%Mem=1900MB
#P OB98/GEN NMR

erre ene a

0 1
  C      504.966    -890.780    -568.233
  O      503.950    -891.710    -567.904
  H      504.486    -889.800    -568.402
  H      505.479    -891.070    -569.147
  H      505.665    -890.690    -567.414
  P      504.354    -893.270    -567.763
  C      504.033    -893.360    -565.205
  O      504.984    -893.430    -566.291
  C      504.759    -893.460    -563.859
  O      505.079    -894.880    -563.633
  C      506.091    -892.660    -563.760
  O      506.182    -892.130    -562.460
  C      507.114    -893.740    -564.014
  O      508.382    -893.380    -563.492
  C      506.484    -894.980    -563.385
  N      507.062    -896.220    -563.927
  C      508.358    -896.490    -563.599
  O      509.008    -895.760    -562.842
  N      508.970    -897.620    -564.153
  C      508.319    -898.340    -565.018
  N      508.974    -899.370    -565.568
  C      506.927    -898.040    -565.435
  C      506.365    -896.990    -564.856
  O      505.195    -893.820    -568.853
  O      502.934    -894.020    -567.660
  H      509.038    -894.070    -563.713
  H      502.643    -894.280    -568.562
  H      506.419    -898.650    -566.155
  H      505.319    -896.650    -565.103
  H      506.657    -894.990    -562.303
  H      507.233    -893.890    -565.111
  H      506.123    -891.870    -564.542
  H      504.051    -893.170    -563.074
  H      509.948    -899.540    -565.272
  H      503.336    -894.150    -565.334
  H      508.581    -900.000    -566.274
  H      503.510    -892.400    -565.247
  P      505.183    -890.990    -561.985
  C      504.433    -892.260    -559.869
  O      504.011    -891.650    -561.091
  O      504.706    -890.060    -563.061
  O      506.031    -890.170    -560.873
  H      505.738    -889.240    -560.899
  H      503.583    -892.663    -559.359
  H      504.906    -891.527    -559.249
  H      505.126    -893.047    -560.084

 6  7  8  9  10  11  12  13  14  15  16  26  30  31  32  33  35 0
 6-311+G(2d,p)
 ****
 37  38 0
 6-311+G(2d,p)
 ****
 1  2  3  4  5  17  18  19  20  21  22  23  24  25 0
 3-21G
 ****
 27  28  29  34  36  39  40  41  42  43  44  45  46 0
 3-21G
 ****


