%nproc=1
%NoSave
%Mem=1900MB
#P OB98/GEN NMR

erre ene a

0 1
  C      -51.012     -52.781     143.750
  O      -51.305     -51.703     144.615
  H      -51.642     -52.698     142.860
  H      -51.233     -53.729     144.247
  H      -49.964     -52.761     143.438
  P      -50.341     -51.429     145.866
  C      -49.472     -49.447     144.463
  O      -49.862     -49.902     145.750
  C      -50.086     -48.077     144.163
  O      -51.527     -48.243     143.983
  C      -49.884     -47.038     145.287
  O      -49.791     -45.749     144.665
  C      -51.185     -47.182     146.054
  O      -51.387     -46.118     146.946
  C      -52.165     -47.317     144.886
  N      -53.487     -47.786     145.283
  C      -54.479     -46.826     145.459
  O      -54.309     -45.622     145.276
  N      -55.697     -47.301     145.868
  C      -56.007     -48.605     146.119
  O      -57.122     -48.977     146.465
  C      -54.908     -49.569     145.945
  C      -53.717     -49.122     145.540
  O      -49.246     -52.421     146.070
  O      -51.344     -51.394     147.114
  H      -51.341     -52.262     147.560
  H      -50.591     -45.979     147.501
  H      -56.428     -46.619     146.001
  H      -55.116     -50.609     146.156
  H      -52.883     -49.803     145.402
  H      -52.266     -46.366     144.352
  H      -51.172     -48.096     146.655
  H      -48.987     -47.224     145.883
  H      -49.689     -47.709     143.210
  H      -49.816     -50.176     143.723
  H      -48.379     -49.382     144.419
  P      -48.497     -44.805     144.785
  C      -47.073     -45.132     142.660
  O      -48.046     -44.333     143.318
  O      -47.386     -45.410     145.580
  O      -49.015     -43.458     145.478
  H      -48.317     -43.111     146.067
  H      -46.860     -44.714     141.698
  H      -47.449     -46.127     142.542
  H      -46.177     -45.157     143.245

 6  7  8  9  10  11  12  13  14  15  16  27  31  32  33  34  35 0
 6-311+G(2d,p)
 ****
 36  37 0
 6-311+G(2d,p)
 ****
 1  2  3  4  5  17  18  19  20  21  22  23  24  25 0
 3-21G
 ****
 26  28  29  30  38  39  40  41  42  43  44  45 0
 3-21G
 ****


