%nproc=1
%NoSave
%Mem=1900MB
#P OB98/GEN NMR

erre ene a

0 1
  C      285.205     316.421    -733.660
  O      285.247     317.604    -732.891
  H      284.721     316.635    -734.615
  H      284.618     315.660    -733.134
  H      286.217     316.050    -733.851
  P      286.080     317.550    -731.513
  C      287.595     319.389    -730.403
  O      286.441     319.079    -731.165
  C      288.123     320.778    -730.777
  O      288.558     320.754    -732.169
  C      287.087     321.891    -730.632
  O      287.755     323.086    -730.201
  C      286.587     322.096    -732.059
  O      286.028     323.388    -732.255
  C      287.869     321.808    -732.863
  N      287.584     321.429    -734.259
  C      287.602     322.467    -735.197
  O      287.848     323.621    -734.847
  N      287.307     322.171    -736.513
  C      286.953     320.964    -736.835
  N      286.644     320.740    -738.145
  C      286.872     319.860    -735.861
  C      287.203     320.155    -734.607
  O      287.475     316.935    -731.999
  O      285.410     316.784    -730.423
  H      285.164     323.434    -731.792
  H      287.809     317.333    -732.824
  H      286.559     318.860    -736.177
  H      287.187     319.395    -733.829
  H      288.528     322.682    -732.881
  H      285.810     321.346    -732.298
  H      286.289     321.642    -729.937
  H      289.017     320.983    -730.171
  H      286.692     321.539    -738.771
  H      288.380     318.642    -730.585
  H      286.301     319.867    -738.494
  H      287.327     319.363    -729.338
  P      288.017     323.310    -728.634
  C      289.470     324.865    -727.158
  O      288.856     324.661    -728.425
  O      288.517     322.135    -727.878
  O      286.551     323.736    -728.100
  H      286.412     323.295    -727.237
  H      289.992     325.799    -727.161
  H      290.161     324.071    -726.964
  H      288.719     324.878    -726.396

 6  7  8  9  10  11  12  13  14  15  16  26  30  31  32  33  35 0
 6-311+G(2d,p)
 ****
 37  38 0
 6-311+G(2d,p)
 ****
 1  2  3  4  5  17  18  19  20  21  22  23  24  25 0
 3-21G
 ****
 27  28  29  34  36  39  40  41  42  43  44  45  46 0
 3-21G
 ****


