%nproc=1
%NoSave
%Mem=1900MB
#P OB98/GEN NMR

erre ene a

0 1
  C      104.685       1.282     -49.908
  O      105.048       0.820     -48.620
  P      104.475      -0.570     -48.068
  C      102.180      -1.570     -47.481
  O      102.917      -0.379     -47.740
  C      101.498      -1.491     -46.118
  O      102.477      -1.430     -45.055
  C      100.633      -0.254     -45.928
  O       99.428      -0.328     -46.667
  C      100.462      -0.248     -44.412
  O       99.436      -1.168     -44.011
  C      101.846      -0.746     -43.943
  N      102.683       0.330     -43.436
  C      102.303       0.879     -42.207
  O      101.268       0.507     -41.651
  N      103.106       1.841     -41.644
  C      104.121       2.302     -42.305
  N      104.914       3.211     -41.672
  C      104.457       1.863     -43.676
  C      103.719       0.868     -44.165
  O      105.274      -1.197     -46.973
  O      104.447      -1.518     -49.360
  H      104.885      -2.364     -49.141
  H       99.438      -1.175     -43.034
  H      105.274       2.329     -44.210
  H      103.910       0.466     -45.156
  H      101.728      -1.504     -43.157
  H      100.182       0.738     -44.030
  H      101.195       0.637     -46.234
  H      100.900      -2.402     -45.984
  H      104.661       3.475     -40.727
  H      102.870      -2.419     -47.498
  H      105.875       3.383     -41.951
  H      101.439      -1.714     -48.276
  P       98.845       1.052     -47.240
  C       97.617       3.105     -46.250
  O       98.082       1.786     -46.040
  O       97.657       0.573     -48.208
  O       99.837       1.891     -47.976
  H       97.612       1.158     -48.986
  H       96.847       3.327     -45.506
  H       97.189       3.225     -47.250
  H       98.444       3.809     -46.120
  H      105.163       2.220     -50.098
  H      103.623       1.406     -49.956
  H      104.994       0.569     -50.643

 3  4  5  6  7  8  9  10  11  12  13  24  27  28  29  30  32 0
 6-311+G(2d,p)
 ****
 34  35 0
 6-311+G(2d,p)
 ****
 1  2  14  15  16  17  18  19  20  21  22  23  25  26 0
 3-21G
 ****
 31  33  36  37  38  39  40  41  42  43  44  45  46 0
 3-21G
 ****


