%nproc=1
%NoSave
%Mem=1900MB
#P OB98/GEN NMR

erre ene a

0 1
  C     -472.705      29.678    -200.809
  O     -471.822      29.629    -201.926
  P     -470.531      30.604    -201.899
  C     -470.175      33.169    -201.783
  O     -471.100      32.089    -201.811
  C     -470.576      34.234    -202.800
  O     -471.977      34.554    -202.696
  C     -469.841      35.576    -202.625
  O     -468.543      35.553    -203.204
  C     -470.769      36.503    -203.408
  O     -470.493      36.392    -204.822
  C     -472.146      35.943    -203.064
  N     -474.262      40.355    -201.724
  C     -473.868      39.898    -202.982
  N     -474.012      40.769    -203.996
  N     -473.394      38.701    -203.215
  C     -473.292      37.948    -202.077
  C     -473.676      38.272    -200.793
  C     -474.186      39.606    -200.557
  O     -474.494      40.069    -199.472
  N     -473.423      37.235    -199.925
  C     -472.938      36.268    -200.685
  N     -472.806      36.668    -201.991
  O     -469.981      30.508    -203.405
  O     -469.494      30.237    -200.890
  H     -471.228      36.847    -205.279
  H     -469.060      30.836    -203.430
  H     -474.618      41.276    -201.612
  H     -472.652      35.296    -200.332
  H     -472.823      35.951    -203.940
  H     -470.620      37.554    -203.138
  H     -474.312      41.724    -203.891
  H     -469.820      35.868    -201.573
  H     -473.674      40.496    -204.926
  H     -470.391      33.836    -203.808
  H     -469.185      32.793    -202.020
  H     -470.154      33.606    -200.774
  P     -467.403      36.346    -202.406
  C     -467.457      38.463    -200.905
  O     -468.091      37.699    -201.899
  O     -466.406      36.817    -203.578
  O     -466.692      35.532    -201.367
  H     -465.516      36.944    -203.240
  H     -467.901      39.456    -200.869
  H     -466.389      38.574    -201.124
  H     -467.562      37.986    -199.923
  H     -473.508      28.987    -200.959
  H     -473.099      30.668    -200.709
  H     -472.170      29.416    -199.920

 3  4  5  6  7  8  9  10  11  12  23  26  30  31 0
 6-311+G(2d,p)
 ****
 33  35  36  37  38 0
 6-311+G(2d,p)
 ****
 1  2  13  14  15  16  17  18  19  20  21  22  24  25 0
 3-21G
 ****
 27  28  29  32  34  39  40  41  42  43  44  45  46  47  48  49 0
 3-21G
 ****


