%nproc=1
%NoSave
%Mem=1900MB
#P OB98/GEN NMR

erre ene a

0 1
  C      200.996    -183.529     -37.927
  O      201.047    -182.222     -37.385
  P      199.726    -181.317     -37.512
  C      200.044    -180.046     -35.264
  O      200.031    -179.977     -36.688
  C      200.054    -178.644     -34.664
  O      201.295    -177.986     -34.970
  C      198.961    -177.734     -35.199
  O      197.719    -178.042     -34.603
  C      199.506    -176.361     -34.826
  O      199.128    -176.003     -33.486
  C      201.034    -176.563     -34.932
  N      201.610    -175.885     -36.082
  C      202.081    -174.587     -35.850
  O      201.974    -174.081     -34.733
  N      202.620    -173.884     -36.901
  C      202.677    -174.431     -38.078
  N      203.225    -173.690     -39.078
  C      202.176    -175.789     -38.365
  C      201.655    -176.453     -37.333
  O      198.668    -182.089     -36.596
  O      199.235    -181.123     -38.910
  H      198.150    -175.957     -33.490
  H      197.755    -181.909     -36.892
  H      202.249    -176.198     -39.362
  H      201.260    -177.454     -37.459
  H      201.534    -176.185     -34.031
  H      199.119    -175.578     -35.484
  H      198.892    -177.819     -36.291
  H      199.976    -178.737     -33.571
  H      203.554    -172.762     -38.851
  H      200.943    -180.578     -34.938
  H      203.338    -174.035     -40.022
  H      199.165    -180.608     -34.930
  P      196.440    -177.200     -35.068
  C      194.696    -178.837     -34.145
  O      195.299    -177.565     -34.003
  O      195.958    -178.003     -36.367
  O      196.644    -175.747     -35.347
  H      195.230    -177.523     -36.804
  H      194.058    -179.021     -33.275
  H      195.459    -179.621     -34.194
  H      194.078    -178.861     -35.049
  H      201.936    -184.016     -37.774
  H      200.791    -183.473     -38.976
  H      200.222    -184.087     -37.442

 3  4  5  6  7  8  9  10  11  12  13  21  23  27  28  29  30  32 0
 6-311+G(2d,p)
 ****
 34  35 0
 6-311+G(2d,p)
 ****
 1  2  14  15  16  17  18  19  20  22  24  25  26 0
 3-21G
 ****
 31  33  36  37  38  39  40  41  42  43  44  45  46 0
 3-21G
 ****


