%nproc=1
%NoSave
%Mem=1900MB
#P OB98/GEN NMR

erre ene a

0 1
  C       69.398    -284.390      51.933
  O       69.716    -283.069      52.324
  H       69.540    -285.049      52.793
  H       70.067    -284.713      51.134
  H       68.358    -284.459      51.606
  P       69.460    -281.871      51.290
  C       71.886    -281.016      51.080
  O       70.808    -281.682      50.437
  C       73.040    -280.782      50.100
  O       73.585    -282.068      49.708
  C       72.625    -280.042      48.826
  O       73.675    -279.159      48.433
  C       72.477    -281.152      47.805
  O       72.673    -280.690      46.469
  C       73.537    -282.149      48.268
  N       75.337    -286.217      45.873
  C       75.961    -285.032      46.208
  N       77.252    -284.900      45.833
  N       75.371    -284.059      46.851
  C       74.085    -284.337      47.182
  C       73.357    -285.470      46.907
  C       74.017    -286.530      46.176
  O       73.510    -287.597      45.837
  N       72.076    -285.367      47.392
  C       72.032    -284.173      47.955
  N       73.223    -283.503      47.844
  O       68.929    -280.613      51.902
  O       68.439    -282.481      50.224
  H       72.872    -281.479      45.920
  H       67.540    -282.132      50.360
  H       75.835    -286.929      45.367
  H       71.170    -283.746      48.449
  H       74.533    -281.914      47.876
  H       71.471    -281.588      47.872
  H       77.776    -285.619      45.358
  H       71.701    -279.477      48.959
  H       77.742    -284.054      46.094
  H       73.838    -280.245      50.625
  H       72.231    -281.643      51.909
  H       71.534    -280.060      51.481
  P       73.609    -277.619      48.881
  C       72.806    -276.815      46.577
  O       72.525    -276.861      47.969
  O       74.926    -276.928      49.000
  O       72.873    -277.697      50.306
  H       73.237    -277.000      50.889
  H       72.022    -276.290      46.072
  H       72.872    -277.812      46.193
  H       73.735    -276.309      46.417

 6  7  8  9  10  11  12  13  14  15  26  29  33  34 0
 6-311+G(2d,p)
 ****
 36  38  39  40  41 0
 6-311+G(2d,p)
 ****
 1  2  3  4  5  16  17  18  19  20  21  22  23  24  25 0
 3-21G
 ****
 27  28  30  31  32  35  37  42  43  44  45  46  47 0
 3-21G
 ****
 48  49 0
 3-21G
 ****


