%nproc=1
%NoSave
%Mem=1900MB
#P OB98/GEN NMR

erre ene a

0 1
  C      149.856    -254.915    -364.233
  O      149.482    -254.070    -363.163
  H      149.767    -255.954    -363.900
  H      150.892    -254.727    -364.517
  H      149.195    -254.769    -365.094
  P      149.382    -252.489    -363.423
  C      150.581    -251.321    -361.458
  O      149.341    -251.770    -361.987
  C      150.369    -250.571    -360.139
  O      149.598    -249.369    -360.406
  C      149.613    -251.383    -359.079
  O      150.150    -251.091    -357.789
  C      148.196    -250.859    -359.178
  O      147.473    -251.013    -357.957
  C      148.425    -249.400    -359.560
  N      145.642    -245.229    -360.198
  C      146.792    -245.426    -359.472
  N      147.273    -244.361    -358.793
  N      147.431    -246.567    -359.403
  C      146.852    -247.546    -360.155
  C      145.706    -247.475    -360.920
  C      145.006    -246.205    -360.964
  O      143.971    -245.980    -361.577
  N      145.433    -248.684    -361.510
  C      146.405    -249.481    -361.105
  N      147.279    -248.841    -360.265
  O      148.289    -252.073    -364.361
  O      150.824    -252.088    -363.986
  H      147.326    -251.977    -357.833
  H      150.793    -251.927    -364.952
  H      145.188    -244.333    -360.206
  H      146.516    -250.517    -361.381
  H      148.609    -248.760    -358.689
  H      147.653    -251.395    -359.966
  H      146.846    -243.443    -358.817
  H      149.668    -252.456    -359.270
  H      148.139    -244.466    -358.273
  H      151.347    -250.249    -359.761
  H      151.049    -250.651    -362.190
  H      151.239    -252.187    -361.298
  P      150.527    -252.306    -356.806
  C      148.655    -251.669    -355.169
  O      150.039    -251.948    -355.321
  O      151.939    -252.805    -356.910
  O      149.484    -253.452    -357.247
  H      149.922    -254.328    -357.161
  H      148.447    -251.445    -354.144
  H      148.084    -252.522    -355.471
  H      148.391    -250.830    -355.778

 6  7  8  9  10  11  12  13  14  15  26  29  33  34 0
 6-311+G(2d,p)
 ****
 36  38  39  40  41 0
 6-311+G(2d,p)
 ****
 1  2  3  4  5  16  17  18  19  20  21  22  23  24  25 0
 3-21G
 ****
 27  28  30  31  32  35  37  42  43  44  45  46  47 0
 3-21G
 ****
 48  49 0
 3-21G
 ****


