%nproc=1
%NoSave
%Mem=1900MB
#P OB98/GEN NMR

erre ene a

0 1
  C      553.670     353.538    -678.382
  O      552.344     353.861    -678.010
  H      554.359     354.085    -677.736
  H      553.849     353.832    -679.420
  H      553.846     352.466    -678.264
  P      551.175     353.122    -678.823
  C      549.230     353.356    -677.101
  O      549.805     353.792    -678.327
  C      549.855     354.121    -675.925
  O      549.708     355.551    -676.168
  C      549.191     353.818    -674.571
  O      550.175     353.959    -673.538
  C      548.184     354.956    -674.462
  O      547.734     355.089    -673.138
  C      549.033     356.100    -675.017
  N      545.828     359.665    -673.277
  C      546.523     358.690    -672.650
  N      547.364     357.783    -673.184
  C      547.481     357.971    -674.512
  C      546.837     358.917    -675.289
  C      545.967     359.795    -674.619
  N      545.243     360.775    -675.258
  N      547.194     358.778    -676.619
  C      548.043     357.769    -676.641
  N      548.246     357.251    -675.389
  O      551.143     351.661    -678.173
  O      551.348     353.076    -680.305
  H      547.130     355.854    -673.048
  H      551.713     351.056    -678.685
  H      546.378     358.631    -671.572
  H      548.527     357.367    -677.522
  H      549.797     356.435    -674.305
  H      547.311     354.770    -675.094
  H      548.743     352.826    -674.521
  H      550.934     353.917    -675.896
  H      549.415     352.285    -676.991
  H      548.153     353.544    -677.120
  H      544.621     361.346    -674.708
  H      545.310     360.861    -676.262
  P      550.682     352.648    -672.756
  C      553.027     353.468    -671.948
  O      551.715     353.052    -671.599
  O      551.646     351.967    -673.843
  O      549.608     351.692    -672.347
  H      551.459     351.014    -673.897
  H      553.577     353.698    -671.059
  H      552.972     354.338    -672.568
  H      553.521     352.682    -672.480

 6  7  8  9  10  11  12  13  14  15  25  28  32  33  34  35 0
 6-311+G(2d,p)
 ****
 36  37  40 0
 6-311+G(2d,p)
 ****
 1  2  3  4  5  16  17  18  19  20  21  22  23  24 0
 3-21G
 ****
 26  27  29  30  31  38  39 41  42  43  44  45  46  47  48 0
 3-21G
 ****


