%nproc=1
%NoSave
%Mem=1900MB
#P OB98/GEN NMR

erre ene a

0 1
  C       38.906    -110.972      95.454
  O       37.814    -111.746      95.007
  H       38.638    -109.914      95.387
  H       39.774    -111.150      94.815
  H       39.156    -111.203      96.493
  P       37.827    -113.329      95.260
  C       35.285    -113.430      94.827
  O       36.568    -113.915      94.458
  C       35.036    -112.063      94.187
  O       35.247    -112.188      92.747
  C       33.603    -111.535      94.405
  O       33.655    -110.109      94.516
  C       32.935    -111.933      93.105
  O       31.766    -111.190      92.865
  C       34.063    -111.684      92.107
  N       33.799    -112.336      90.828
  C       32.926    -111.689      89.961
  O       32.371    -110.623      90.222
  N       32.644    -112.346      88.795
  C       33.051    -113.605      88.470
  O       32.702    -114.177      87.447
  C       33.930    -114.264      89.450
  C       34.264    -113.608      90.563
  O       37.915    -113.763      96.685
  O       39.059    -113.858      94.384
  H       31.151    -111.286      93.616
  H       39.360    -114.726      94.713
  H       32.020    -111.884      88.151
  H       34.258    -115.271      89.230
  H       34.894    -114.069      91.314
  H       34.207    -110.609      91.939
  H       32.659    -112.992      93.131
  H       33.118    -111.962      95.286
  H       35.780    -111.350      94.559
  H       35.254    -113.341      95.918
  H       34.519    -114.142      94.505
  P       33.680    -109.371      95.941
  C       35.254    -107.381      95.544
  O       33.906    -107.790      95.752
  O       34.600    -109.999      96.939
  O       32.168    -109.467      96.460
  H       32.169    -109.743      97.396
  H       35.291    -106.318      95.431
  H       35.636    -107.847      94.660
  H       35.849    -107.671      96.385

 6  7  8  9  10  11  12  13  14  15  16  26  31  32  33  34  35 0
 6-311+G(2d,p)
 ****
 36  37 0
 6-311+G(2d,p)
 ****
 1  2  3  4  5  17  18  19  20  21  22  23  24  25 0
 3-21G
 ****
 27  28  29  30  38  39  40  41  42  43  44  45 0
 3-21G
 ****


