%nproc=1
%NoSave
%Mem=1900MB
#P OB98/GEN NMR

erre ene a

0 1
  C     -392.561     271.160     233.483
  O     -393.245     271.367     232.263
  H     -391.485     271.248     233.297
  H     -392.765     270.159     233.868
  H     -392.850     271.911     234.224
  P     -394.848     271.426     232.278
  C     -394.717     268.935     231.616
  O     -395.363     270.186     231.399
  C     -395.513     267.816     230.952
  O     -394.845     266.546     231.146
  C     -396.918     267.638     231.521
  O     -397.782     268.653     231.052
  C     -397.240     266.235     231.031
  O     -397.636     266.249     229.647
  C     -395.870     265.526     231.195
  N     -395.779     264.752     232.434
  C     -395.800     263.366     232.293
  O     -395.891     262.801     231.206
  N     -395.754     262.648     233.459
  C     -395.786     263.172     234.725
  O     -395.966     262.495     235.730
  C     -395.687     264.638     234.809
  C     -395.704     265.348     233.676
  O     -395.452     272.745     231.927
  O     -395.226     270.987     233.773
  H     -395.442     271.779     234.298
  H     -396.881     266.617     229.146
  H     -395.818     261.644     233.374
  H     -395.645     265.087     235.793
  H     -395.662     266.435     233.716
  H     -395.688     264.845     230.352
  H     -398.056     265.774     231.593
  H     -396.883     267.631     232.617
  H     -395.551     268.020     229.875
  H     -394.663     268.757     232.698
  H     -393.699     268.984     231.215
  P     -398.633     269.553     232.069
  C     -400.852     268.265     232.030
  O     -400.178     269.457     231.645
  O     -398.129     270.945     232.253
  O     -398.585     268.742     233.448
  H     -398.269     269.337     234.156
  H     -401.869     268.307     231.699
  H     -400.828     268.170     233.095
  H     -400.367     267.421     231.585

 6  7  8  9  10  11  12  13  14  15  16  27  31  32  33  34  35 0
 6-311+G(2d,p)
 ****
 36  37 0
 6-311+G(2d,p)
 ****
 1  2  3  4  5  17  18  19  20  21  22  23  24  25 0
 3-21G
 ****
 26  28  29  30  38  39  40  41  42  43  44  45 0
 3-21G
 ****


