%nproc=1
%NoSave
%Mem=1900MB
#P OB98/GEN NMR

erre ene a

0 1
  C     -106.702      26.290     163.110
  O     -105.628      26.989     163.708
  H     -107.635      26.621     163.572
  H     -106.587      25.217     163.280
  H     -106.743      26.497     162.038
  P     -104.163      26.717     163.110
  C     -103.079      26.957     160.766
  O     -104.174      27.290     161.607
  C     -102.764      28.105     159.809
  O     -103.849      28.222     158.841
  C     -102.611      29.474     160.493
  O     -101.607      30.213     159.786
  C     -103.957      30.135     160.233
  O     -103.897      31.556     160.332
  C     -104.250      29.608     158.829
  N     -107.537      32.658     156.546
  C     -106.167      32.766     156.697
  N     -105.580      33.857     156.158
  N     -105.436      31.883     157.323
  C     -106.151      30.827     157.785
  C     -107.505      30.604     157.705
  C     -108.308      31.606     157.032
  O     -109.526      31.575     156.883
  N     -107.849      29.427     158.323
  C     -106.705      28.942     158.771
  N     -105.646      29.754     158.471
  O     -104.157      25.129     162.910
  O     -103.028      27.179     163.961
  H     -103.531      31.781     161.212
  H     -103.772      24.691     163.693
  H     -108.054      33.375     156.066
  H     -106.588      28.015     159.321
  H     -103.667      30.127     158.058
  H     -104.702      29.773     160.953
  H     -106.072      34.553     155.621
  H     -102.354      29.423     161.556
  H     -104.570      33.932     156.219
  H     -101.864      27.850     159.241
  H     -103.337      26.065     160.184
  H     -102.204      26.738     161.386
  P     -100.082      30.040     160.243
  C      -98.015      28.717     159.378
  O      -99.428      28.870     159.362
  O     -100.219      29.360     161.689
  O      -99.310      31.317     160.305
  H      -99.449      29.593     162.238
  H      -97.738      27.900     158.745
  H      -97.689      28.520     160.378
  H      -97.555      29.615     159.023

 6  7  8  9  10  11  12  13  14  15  26  29  33  34 0
 6-311+G(2d,p)
 ****
 36  38  39  40  41 0
 6-311+G(2d,p)
 ****
 1  2  3  4  5  16  17  18  19  20  21  22  23  24  25 0
 3-21G
 ****
 27  28  30  31  32  35  37  42  43  44  45  46  47 0
 3-21G
 ****
 48  49 0
 3-21G
 ****


