%nproc=1
%NoSave
%Mem=1900MB
#P OB98/GEN NMR

erre ene a

0 1
  C      498.745      -5.967     676.495
  O      498.302      -5.125     675.450
  H      499.777      -6.261     676.297
  H      498.125      -6.867     676.536
  H      498.704      -5.445     677.455
  P      496.893      -4.382     675.649
  C      495.389      -6.117     674.432
  O      495.772      -5.533     675.668
  C      494.084      -6.895     674.606
  O      494.346      -8.057     675.446
  C      492.960      -6.090     675.276
  O      491.717      -6.477     674.688
  C      493.005      -6.573     676.713
  O      491.782      -6.399     677.418
  C      493.380      -8.044     676.513
  N      493.928      -8.658     677.721
  C      493.067      -9.440     678.484
  O      491.907      -9.718     678.178
  N      493.589      -9.915     679.664
  C      494.843      -9.666     680.146
  O      495.243     -10.103     681.215
  C      495.703      -8.830     679.296
  C      495.209      -8.370     678.142
  O      496.669      -3.663     674.239
  O      496.825      -3.430     676.796
  H      497.057      -2.769     674.244
  H      491.889      -6.827     678.295
  H      492.979     -10.479     680.229
  H      496.697      -8.601     679.652
  H      495.809      -7.731     677.500
  H      492.507      -8.616     676.174
  H      493.793      -6.045     677.263
  H      493.086      -5.003     675.202
  H      493.762      -7.271     673.626
  H      496.171      -6.805     674.094
  H      495.264      -5.329     673.680
  P      491.068      -5.482     673.611
  C      489.840      -4.201     675.541
  O      490.710      -4.142     674.423
  O      489.653      -6.183     673.354
  O      491.917      -5.304     672.393
  H      489.284      -6.597     674.152
  H      489.719      -3.220     675.951
  H      490.257      -4.849     676.283
  H      488.887      -4.578     675.232

 6  7  8  9  10  11  12  13  14  15  16  27  31  32  33  34  35 0
 6-311+G(2d,p)
 ****
 36  37 0
 6-311+G(2d,p)
 ****
 1  2  3  4  5  17  18  19  20  21  22  23  24  25 0
 3-21G
 ****
 26  28  29  30  38  39  40  41  42  43  44  45 0
 3-21G
 ****


