%nproc=1
%NoSave
%Mem=1900MB
#P OB98/GEN NMR

erre ene a

0 1
  C       39.728     113.204      32.427
  O       40.162     112.103      33.208
  P       41.498     112.271      34.075
  C       42.101     113.546      36.256
  O       41.269     113.480      35.106
  C       42.743     114.928      36.385
  O       43.713     115.114      35.320
  C       41.741     116.082      36.292
  O       42.175     117.158      37.137
  C       41.872     116.551      34.859
  O       41.446     117.905      34.709
  C       43.365     116.325      34.620
  N       47.157     116.160      31.285
  C       47.187     115.988      32.655
  N       48.406     115.838      33.216
  N       46.117     115.960      33.405
  C       44.968     116.130      32.705
  C       44.811     116.293      31.347
  C       46.004     116.334      30.531
  O       46.048     116.511      29.318
  N       43.488     116.398      31.004
  C       42.844     116.343      32.153
  N       43.701     116.217      33.217
  O       42.538     112.871      33.017
  O       42.015     111.007      34.675
  H       41.698     118.183      33.808
  H       43.171     112.181      32.747
  H       48.012     116.186      30.752
  H       41.772     116.414      32.273
  H       43.967     117.138      35.048
  H       41.261     115.925      34.200
  H       49.271     115.918      32.702
  H       40.711     115.811      36.551
  H       48.458     115.756      34.223
  H       43.295     114.970      37.331
  H       42.886     112.794      36.171
  H       41.508     113.322      37.149
  P       41.020     117.930      37.943
  C       39.239     117.143      39.670
  O       40.134     116.791      38.635
  O       40.077     118.495      36.781
  O       41.519     119.007      38.846
  H       39.594     119.284      37.092
  H       38.219     116.925      39.345
  H       39.309     118.202      39.937
  H       39.466     116.543      40.554
  H       38.830     112.941      31.909
  H       40.487     113.460      31.718
  H       39.540     114.042      33.065

 3  4  5  6  7  8  9  10  11  12  23  26  30  31 0
 6-311+G(2d,p)
 ****
 33  35  36  37  38 0
 6-311+G(2d,p)
 ****
 1  2  13  14  15  16  17  18  19  20  21  22  24  25 0
 3-21G
 ****
 27  28  29  32  34  39  40  41  42  43  44  45  46  47  48  49 0
 3-21G
 ****


