%nproc=1
%NoSave
%Mem=1900MB
#P OB98/GEN NMR

erre ene a

0 1
  C     -190.025     208.979    -233.539
  O     -190.270     210.372    -233.287
  P     -190.925     210.747    -231.867
  C     -189.893     213.115    -231.653
  O     -191.081     212.347    -231.796
  C     -190.046     214.495    -232.309
  O     -190.231     214.363    -233.752
  C     -191.226     215.309    -231.781
  O     -190.853     216.692    -231.807
  C     -192.300     215.076    -232.823
  O     -193.316     216.067    -232.768
  C     -191.450     215.062    -234.091
  N     -194.706     215.758    -237.963
  C     -194.224     216.597    -237.028
  N     -193.370     216.327    -236.014
  C     -192.985     215.041    -236.049
  C     -193.403     214.061    -236.938
  C     -194.314     214.457    -237.935
  N     -194.822     213.597    -238.872
  N     -192.824     212.845    -236.623
  C     -192.079     213.089    -235.562
  N     -192.121     214.408    -235.200
  O     -189.752     210.430    -230.829
  O     -192.160     209.972    -231.553
  H     -192.918     216.935    -232.979
  H     -189.964     209.630    -230.317
  H     -194.573     217.630    -237.100
  H     -191.500     212.353    -235.025
  H     -191.190     216.074    -234.427
  H     -192.773     214.089    -232.656
  H     -191.553     215.027    -230.768
  H     -189.110     215.056    -232.149
  H     -189.048     212.588    -232.116
  H     -195.494     213.957    -239.538
  H     -194.574     212.621    -238.832
  H     -189.644     213.203    -230.593
  P     -190.443     217.350    -230.400
  C     -188.366     218.628    -231.282
  O     -189.676     218.710    -230.750
  O     -189.289     216.383    -229.851
  O     -191.578     217.475    -229.431
  H     -189.249     216.429    -228.882
  H     -188.254     219.380    -232.069
  H     -188.150     217.636    -231.704
  H     -187.646     218.833    -230.487
  H     -189.591     208.863    -234.510
  H     -190.949     208.441    -233.495
  H     -189.353     208.596    -232.800

 3  4  5  6  7  8  9  10  11  12  22  25  29  30  31  32 0
 6-311+G(2d,p)
 ****
 33  36  37 0
 6-311+G(2d,p)
 ****
 1  2  13  14  15  16  17  18  19  20  21  23  24  26 0
 3-21G
 ****
 27  28  34  35  38  39  40  41  42  43  44  45  46  47  48 0
 3-21G
 ****


