%nproc=1
%NoSave
%Mem=1900MB
#P OB98/GEN NMR

erre ene a

0 1
  C      -90.747     147.853      94.883
  O      -90.519     146.477      94.651
  H      -91.736     148.004      95.322
  H      -89.992     148.224      95.582
  H      -90.667     148.412      93.946
  P      -91.548     145.729      93.673
  C      -92.046     143.909      95.466
  O      -92.560     144.950      94.646
  C      -93.184     142.979      95.872
  O      -92.652     141.782      96.485
  C      -94.135     143.583      96.900
  O      -95.110     144.426      96.310
  C      -94.768     142.326      97.472
  O      -95.749     141.813      96.554
  C      -93.561     141.378      97.546
  N      -93.994     140.767     102.612
  C      -94.871     140.579     101.602
  N      -94.672     140.744     100.279
  C      -93.412     141.135     100.032
  C      -92.405     141.360     100.958
  C      -92.736     141.165     102.309
  N      -91.855     141.386     103.343
  N      -91.249     141.773     100.324
  C      -91.550     141.778      99.041
  N      -92.856     141.431      98.817
  O      -90.677     144.545      93.038
  O      -92.212     146.583      92.646
  H      -96.095     140.985      96.939
  H      -91.135     144.164      92.265
  H      -95.867     140.258     101.898
  H      -90.867     142.034      98.241
  H      -93.835     140.331      97.370
  H      -95.278     142.505      98.422
  H      -93.590     144.101      97.696
  H      -93.723     142.677      94.965
  H      -91.593     144.349      96.361
  H      -92.227     141.363     104.280
  H      -90.967     141.821     103.140
  H      -91.283     143.352      94.912
  P      -95.695     145.623      97.208
  C      -98.164     144.817      97.121
  O      -97.013     145.049      97.925
  O      -96.280     146.635      96.118
  O      -94.696     146.272      98.109
  H      -96.204     147.559      96.425
  H      -98.956     144.438      97.733
  H      -97.929     144.103      96.359
  H      -98.473     145.735      96.666

 6  7  8  9  10  11  12  13  14  15  25  28  32  33  34  35 0
 6-311+G(2d,p)
 ****
 36  39  40 0
 6-311+G(2d,p)
 ****
 1  2  3  4  5  16  17  18  19  20  21  22  23  24 0
 3-21G
 ****
 26  27  29  30  31  37  38  41  42  43  44  45  46  47 0
 3-21G
 ****
 48 0
 3-21G
 ****


