%nproc=1
%NoSave
%Mem=1900MB
#P OB98/GEN NMR

erre ene a

0 1
  C      -38.537    -118.612    -216.789
  O      -39.444    -118.322    -215.747
  H      -37.515    -118.510    -216.407
  H      -38.675    -117.903    -217.611
  H      -38.676    -119.634    -217.152
  P      -40.996    -118.614    -216.043
  C      -42.858    -117.393    -217.386
  O      -41.572    -117.310    -216.785
  C      -43.410    -115.996    -217.644
  O      -43.825    -115.380    -216.401
  C      -42.416    -115.038    -218.286
  O      -42.352    -115.206    -219.695
  C      -43.043    -113.699    -217.922
  O      -44.167    -113.437    -218.790
  C      -43.526    -113.955    -216.487
  N      -41.525    -110.172    -213.773
  C      -42.503    -110.141    -214.751
  N      -43.015    -108.931    -215.055
  N      -42.937    -111.205    -215.377
  C      -42.328    -112.346    -214.977
  C      -41.351    -112.505    -214.017
  C      -40.885    -111.322    -213.328
  O      -40.038    -111.294    -212.435
  N      -40.989    -113.818    -213.881
  C      -41.728    -114.454    -214.767
  N      -42.554    -113.606    -215.464
  O      -41.672    -118.537    -214.590
  O      -41.291    -119.915    -216.709
  H      -43.828    -113.464    -219.702
  H      -42.394    -119.195    -214.543
  H      -41.218    -109.320    -213.328
  H      -41.706    -115.519    -214.943
  H      -44.449    -113.412    -216.256
  H      -42.350    -112.864    -218.035
  H      -42.686    -108.068    -214.647
  H      -41.424    -115.110    -217.819
  H      -43.753    -108.885    -215.747
  H      -44.308    -116.099    -218.272
  H      -43.535    -117.932    -216.710
  H      -42.777    -117.947    -218.327
  P      -40.923    -114.987    -220.405
  C      -39.487    -112.902    -221.013
  O      -40.692    -113.401    -220.431
  O      -41.226    -115.343    -221.937
  O      -39.808    -115.804    -219.847
  H      -40.400    -115.601    -222.391
  H      -39.479    -111.834    -220.956
  H      -39.434    -113.205    -222.038
  H      -38.645    -113.294    -220.481

 6  7  8  9  10  11  12  13  14  15  26  29  33  34 0
 6-311+G(2d,p)
 ****
 36  38  39  40  41 0
 6-311+G(2d,p)
 ****
 1  2  3  4  5  16  17  18  19  20  21  22  23  24  25 0
 3-21G
 ****
 27  28  30  31  32  35  37  42  43  44  45  46  47 0
 3-21G
 ****
 48  49 0
 3-21G
 ****


