%nproc=1
%NoSave
%Mem=1900MB
#P OB98/GEN NMR

erre ene a

0 1
  C      157.697      83.226     118.156
  O      156.708      82.986     117.176
  H      158.148      84.204     117.969
  H      158.478      82.464     118.100
  H      157.248      83.227     119.154
  P      155.959      81.570     117.233
  C      157.562      80.552     115.460
  O      156.220      80.855     115.819
  C      157.591      79.934     114.061
  O      156.732      78.774     114.019
  C      157.070      80.859     112.963
  O      158.030      81.821     112.576
  C      156.764      79.855     111.866
  O      157.938      79.535     111.102
  C      156.265      78.630     112.663
  N      154.812      78.477     112.594
  C      154.347      77.553     111.668
  O      155.088      76.891     110.939
  N      152.985      77.434     111.570
  C      152.069      78.165     112.271
  O      150.859      78.067     112.086
  C      152.622      79.123     113.245
  C      153.944      79.245     113.353
  O      154.413      81.975     117.175
  O      156.280      80.733     118.426
  H      154.018      81.911     118.065
  H      158.313      80.386     110.806
  H      152.630      76.774     110.896
  H      151.920      79.713     113.819
  H      154.380      79.952     114.050
  H      156.718      77.708     112.269
  H      156.029      80.242     111.159
  H      156.134      81.335     113.284
  H      158.619      79.619     113.841
  H      157.980      79.836     116.173
  H      158.157      81.470     115.488
  P      157.776      83.357     112.965
  C      157.031      83.998     110.524
  O      157.924      84.206     111.609
  O      159.113      83.694     113.779
  O      156.507      83.588     113.715
  H      159.902      83.247     113.425
  H      157.290      84.653     109.718
  H      156.030      84.202     110.842
  H      157.100      82.982     110.195

 6  7  8  9  10  11  12  13  14  15  16  27  31  32  33  34  35 0
 6-311+G(2d,p)
 ****
 36  37 0
 6-311+G(2d,p)
 ****
 1  2  3  4  5  17  18  19  20  21  22  23  24  25 0
 3-21G
 ****
 26  28  29  30  38  39  40  41  42  43  44  45 0
 3-21G
 ****


