%nproc=1
%NoSave
%Mem=1900MB
#P OB98/GEN NMR

erre ene a

0 1
  C       57.695    -898.060    -634.321
  O       58.543    -898.880    -635.137
  P       59.292    -898.230    -636.406
  C       61.618    -899.200    -635.717
  O       60.847    -898.060    -636.042
  C       63.121    -898.870    -635.730
  O       63.571    -898.680    -637.086
  C       63.468    -897.580    -635.011
  O       63.476    -897.740    -633.595
  C       64.843    -897.270    -635.578
  O       65.872    -898.040    -634.900
  C       64.697    -897.770    -637.045
  N       64.544    -896.660    -637.987
  C       65.682    -895.930    -638.263
  O       66.767    -896.130    -637.717
  N       65.526    -894.920    -639.191
  C       64.359    -894.540    -639.780
  O       64.282    -893.620    -640.575
  C       63.162    -895.310    -639.383
  C       63.308    -896.310    -638.523
  O       58.770    -896.710    -636.343
  O       58.984    -898.840    -637.725
  H       66.728    -897.680    -635.195
  H       58.791    -896.330    -637.244
  H       66.351    -894.380    -639.420
  H       62.211    -895.030    -639.810
  H       62.434    -896.890    -638.207
  H       65.575    -898.360    -637.338
  H       65.112    -896.220    -635.496
  H       62.776    -896.790    -635.297
  H       63.654    -899.720    -635.308
  H       61.422    -900.000    -636.455
  H       61.321    -899.580    -634.725
  P       63.188    -896.440    -632.717
  C       60.696    -897.220    -632.846
  O       61.627    -896.150    -632.846
  O       63.911    -895.310    -633.603
  O       63.734    -896.560    -631.323
  H       63.842    -895.500    -634.563
  H       61.028    -898.030    -632.209
  H       60.568    -897.580    -633.872
  H       59.745    -896.840    -632.475
  H       57.283    -898.650    -633.530
  H       56.902    -897.661    -634.919
  H       58.268    -897.257    -633.906

 3  4  5  6  7  8  9  10  11  12  13  23  28  29  30  31  32 0
 6-311+G(2d,p)
 ****
 33  34 0
 6-311+G(2d,p)
 ****
 1  2  14  15  16  17  18  19  20  21  22  24  25  26 0
 3-21G
 ****
 27  35  36  37  38  39  40  41  42  43  44  45 0
 3-21G
 ****


