%nproc=1
%NoSave
%Mem=1900MB
#P OB98/GEN NMR

erre ene a

0 1
  C       72.127     138.294    -287.234
  O       72.075     136.903    -286.956
  P       71.099     136.000    -287.854
  C       72.850     135.465    -289.680
  O       71.629     136.119    -289.366
  C       72.882     135.049    -291.146
  O       74.166     134.428    -291.431
  C       71.787     134.046    -291.542
  O       71.229     134.433    -292.806
  C       72.551     132.751    -291.754
  O       71.877     131.874    -292.649
  C       73.881     133.295    -292.275
  N       76.806     130.334    -295.133
  C       75.960     131.359    -295.503
  N       75.837     131.589    -296.830
  N       75.293     132.095    -294.654
  C       75.538     131.774    -293.360
  C       76.358     130.784    -292.867
  C       77.045     129.942    -293.822
  O       77.736     128.960    -293.559
  N       76.361     130.776    -291.496
  C       75.541     131.752    -291.156
  N       74.978     132.356    -292.255
  O       69.738     136.842    -287.859
  O       70.874     134.614    -287.354
  H       71.729     132.371    -293.477
  H       69.004     136.287    -287.531
  H       77.281     129.787    -295.828
  H       75.300     132.035    -290.139
  H       73.770     133.657    -293.306
  H       72.671     132.243    -290.790
  H       76.350     131.084    -297.534
  H       70.988     133.939    -290.803
  H       75.240     132.351    -297.119
  H       72.821     135.953    -291.766
  H       72.953     134.573    -289.052
  H       73.682     136.144    -289.464
  P       69.690     134.037    -293.045
  C       68.849     136.468    -292.640
  O       68.832     135.115    -292.231
  O       69.518     132.692    -292.199
  O       69.327     133.860    -294.482
  H       68.783     132.156    -292.552
  H       69.348     136.601    -293.605
  H       69.375     137.060    -291.888
  H       67.821     136.829    -292.722
  H       72.814     138.766    -286.563
  H       71.154     138.720    -287.107
  H       72.453     138.444    -288.242

 3  4  5  6  7  8  9  10  11  12  23  26  30  31  33  0
 6-311+G(2d,p)
 ****
 35  36  37  38 0
 6-311+G(2d,p)
 ****
 1  2  13  14  15  16  17  18  19  20  21  22  24  25  27  28  29 0
 3-21G
 ****
 32  34  39  40  41  42  43  44  45  46  47  48  49 0
 3-21G
 ****


