%nproc=1
%NoSave
%Mem=1900MB
#P OB98/GEN NMR

erre ene a

0 1
  C     -870.747      31.274    -458.380
  O     -869.383      31.035    -458.000
  P     -868.251      31.912    -458.734
  C     -867.776      33.415    -456.645
  O     -868.243      33.333    -457.982
  C     -868.069      34.807    -456.075
  O     -869.482      34.954    -455.782
  C     -867.352      35.107    -454.772
  O     -865.970      35.379    -454.977
  C     -868.161      36.301    -454.265
  O     -867.739      37.500    -454.925
  C     -869.594      35.922    -454.719
  N     -870.421      35.434    -453.634
  C     -871.666      36.056    -453.477
  O     -872.041      36.980    -454.198
  N     -872.440      35.587    -452.465
  C     -872.110      34.601    -451.578
  O     -872.856      34.213    -450.686
  C     -870.767      34.019    -451.749
  C     -870.002      34.452    -452.760
  O     -868.953      32.212    -460.141
  O     -866.937      31.206    -458.816
  H     -869.912      32.331    -460.067
  H     -866.792      37.613    -454.713
  H     -873.350      36.013    -452.348
  H     -870.450      33.252    -451.051
  H     -869.010      34.037    -452.893
  H     -870.088      36.804    -455.152
  H     -868.054      36.456    -453.193
  H     -867.460      34.265    -454.073
  H     -867.797      35.546    -456.841
  H     -866.705      33.238    -456.609
  H     -868.258      32.633    -456.044
  P     -864.931      34.289    -454.406
  C     -863.708      33.848    -456.680
  O     -864.522      33.359    -455.632
  O     -865.904      33.366    -453.531
  O     -863.798      34.890    -453.646
  H     -866.738      33.154    -453.968
  H     -863.258      33.018    -457.216
  H     -862.899      34.486    -456.278
  H     -864.310      34.432    -457.379
  H     -871.391      30.629    -457.820
  H     -870.866      31.077    -459.425
  H     -871.000      32.294    -458.178

 3  4  5  6  7  8  9  10  11  12  13  24  28  29  30  31  32 0
 6-311+G(2d,p)
 ****
 33  34 0
 6-311+G(2d,p)
 ****
 1  2  14  15  16  17  18  19  20  21  22  23  25  26  27 0
 3-21G
 ****
 35  36  37  38  39  40  41  42  43  44  45 0
 3-21G
 ****


