%nproc=1
%NoSave
%Mem=1900MB
#P OB98/GEN NMR

erre ene a

0 1
  C      217.232     187.858     497.109
  O      216.259     187.141     497.842
  P      215.117     187.987     498.591
  C      213.065     187.430     497.082
  O      214.027     188.393     497.488
  C      212.015     188.094     496.190
  O      212.593     188.439     494.908
  C      210.828     187.197     495.873
  O      209.911     187.152     496.962
  C      210.258     187.861     494.628
  O      209.410     188.964     494.975
  C      211.538     188.363     493.927
  N      211.911     187.520     492.789
  C      211.451     187.940     491.545
  O      210.740     188.939     491.395
  N      211.793     187.147     490.480
  C      212.487     185.980     490.544
  O      212.712     185.283     489.561
  C      212.933     185.567     491.890
  C      212.618     186.341     492.932
  O      215.841     189.373     498.943
  O      214.555     187.328     499.806
  H      208.865     189.163     494.185
  H      215.516     189.706     499.805
  H      211.483     187.447     489.573
  H      213.483     184.643     491.975
  H      212.924     186.055     493.935
  H      211.391     189.385     493.561
  H      209.656     187.171     494.025
  H      211.177     186.191     495.615
  H      211.682     189.024     496.674
  H      212.584     187.006     497.968
  H      213.573     186.621     496.543
  P      209.324     185.711     497.350
  C      209.829     185.663     499.915
  O      210.183     185.236     498.618
  O      209.854     184.828     496.128
  O      207.842     185.710     497.524
  H      210.716     185.136     495.794
  H      208.739     185.740     500.030
  H      210.285     186.638     500.117
  H      210.209     184.941     500.639
  H      217.923     187.171     496.667
  H      217.757     188.520     497.766
  H      216.752     188.426     496.339

 3  4  5  6  7  8  9  10  11  12  13  23  28  29  30  31  32 0
 6-311+G(2d,p)
 ****
 33  34 0
 6-311+G(2d,p)
 ****
 1  2  14  15  16  17  18  19  20  21  22  24  25  26 0
 3-21G
 ****
 27  35  36  37  38  39  40  41  42  43  44  45 0
 3-21G
 ****


