%nproc=1
%NoSave
%Mem=1900MB
#P OB98/GEN NMR

erre ene a

0 1
  C      365.864      92.924    -161.278
  O      365.332      94.231    -161.184
  H      365.522      92.346    -160.415
  H      366.957      92.956    -161.273
  H      365.507      92.441    -162.191
  P      365.746      95.259    -162.345
  C      368.031      95.956    -161.379
  O      367.352      95.199    -162.373
  C      369.501      96.141    -161.759
  O      370.167      94.856    -161.666
  C      369.700      96.668    -163.183
  O      370.795      97.581    -163.196
  C      370.065      95.424    -163.974
  O      370.827      95.725    -165.139
  C      370.808      94.596    -162.927
  N      373.474      90.682    -164.825
  C      373.824      91.949    -164.517
  N      373.051      92.926    -163.997
  C      371.808      92.470    -163.754
  C      371.305      91.209    -164.019
  C      372.199      90.286    -164.591
  N      371.844      89.002    -164.931
  N      369.970      91.140    -163.671
  C      369.677      92.334    -163.191
  N      370.754      93.179    -163.238
  O      365.158      96.626    -162.239
  O      365.347      94.441    -163.660
  H      370.335      96.383    -165.670
  H      365.625      93.508    -163.598
  H      374.858      92.216    -164.719
  H      368.706      92.640    -162.815
  H      371.866      94.873    -162.847
  H      369.148      94.911    -164.295
  H      368.807      97.155    -163.578
  H      369.975      96.797    -161.021
  H      367.965      95.448    -160.409
  H      372.552      88.402    -165.322
  H      370.904      88.684    -164.746
  H      367.535      96.927    -161.298
  P      370.479      99.152    -163.180
  C      371.239      99.947    -165.518
  O      370.134      99.620    -164.678
  O      371.459     100.007    -162.449
  O      369.039      99.207    -162.472
  H      369.000      99.996    -161.896
  H      370.879     100.241    -166.482
  H      371.875      99.092    -165.620
  H      371.792     100.753    -165.082

 6  7  8  9  10  11  12  13  14  15  25  28  32  33  34  35 0
 6-311+G(2d,p)
 ****
 36  39  40 0
 6-311+G(2d,p)
 ****
 1  2  3  4  5  16  17  18  19  20  21  22  23  24 0
 3-21G
 ****
 26  27  29  30  31  37  38  41  42  43  44  45  46  47 0
 3-21G
 ****
 48 0
 3-21G
 ****


