%nproc=1
%NoSave
%Mem=1900MB
#P OB98/GEN NMR

erre ene a

0 1
  C     -297.668    -799.934    -305.053
  O     -296.823    -799.483    -306.088
  H     -298.255    -799.091    -304.689
  H     -297.070    -800.328    -304.229
  H     -298.355    -800.706    -305.411
  P     -296.066    -800.563    -307.000
  C     -294.126    -800.451    -305.302
  O     -294.995    -801.289    -306.046
  C     -293.497    -801.216    -304.136
  O     -293.175    -802.571    -304.572
  C     -292.198    -800.586    -303.601
  O     -292.122    -800.880    -302.205
  C     -291.143    -801.368    -304.367
  O     -289.875    -801.242    -303.760
  C     -291.764    -802.766    -304.365
  N     -291.170    -803.643    -305.371
  C     -290.035    -804.347    -304.993
  O     -289.514    -804.240    -303.883
  N     -289.480    -805.158    -305.944
  C     -289.913    -805.279    -307.228
  O     -289.358    -805.999    -308.055
  C     -291.095    -804.472    -307.593
  C     -291.665    -803.709    -306.656
  O     -295.509    -800.052    -308.286
  O     -297.157    -801.713    -307.238
  H     -289.614    -800.297    -303.705
  H     -297.008    -802.144    -308.100
  H     -288.666    -805.684    -305.684
  H     -291.450    -804.540    -308.610
  H     -292.528    -803.104    -306.890
  H     -291.632    -803.246    -303.383
  H     -291.054    -800.991    -305.391
  H     -292.143    -799.507    -303.767
  H     -294.244    -801.316    -303.339
  H     -294.710    -799.607    -304.921
  H     -293.333    -800.069    -305.965
  P     -292.710    -799.895    -301.091
  C     -290.459    -798.843    -300.418
  O     -291.749    -798.611    -300.968
  O     -293.019    -800.558    -299.779
  O     -294.054    -799.295    -301.743
  H     -294.684    -799.057    -301.041
  H     -289.914    -797.923    -300.386
  H     -289.933    -799.548    -301.027
  H     -290.559    -799.233    -299.427

 6  7  8  9  10  11  12  13  14  15  16  26  31  32  33  34  35 0
 6-311+G(2d,p)
 ****
 36  37 0
 6-311+G(2d,p)
 ****
 1  2  3  4  5  17  18  19  20  21  22  23  24  25 0
 3-21G
 ****
 27  28  29  30  38  39  40  41  42  43  44  45 0
 3-21G
 ****


