%nproc=1
%NoSave
%Mem=1900MB
#P OB98/GEN NMR

erre ene a

0 1
  C      225.991     -59.926     177.845
  O      226.614     -60.762     178.800
  H      226.690     -59.132     177.567
  H      225.087     -59.467     178.254
  H      225.743     -60.502     176.947
  P      225.705     -61.847     179.556
  C      225.471     -60.082     181.429
  O      224.793     -61.007     180.581
  C      224.706     -58.759     181.522
  O      224.459     -58.236     180.202
  C      223.334     -58.891     182.165
  O      223.369     -59.177     183.546
  C      222.623     -57.634     181.673
  O      222.866     -56.492     182.486
  C      223.263     -57.430     180.278
  N      222.332     -57.736     179.199
  C      221.160     -56.985     179.182
  O      220.890     -56.124     180.024
  N      220.275     -57.278     178.182
  C      220.423     -58.264     177.252
  O      219.577     -58.510     176.404
  C      221.673     -59.044     177.335
  C      222.555     -58.746     178.291
  O      226.444     -62.986     180.196
  O      224.657     -62.313     178.437
  H      222.722     -56.761     183.414
  H      224.218     -63.160     178.691
  H      219.426     -56.738     178.147
  H      221.822     -59.837     176.612
  H      223.482     -59.312     178.375
  H      223.587     -56.387     180.159
  H      221.539     -57.778     181.638
  H      222.819     -59.733     181.694
  H      225.330     -58.038     182.061
  H      226.461     -59.898     180.993
  H      225.598     -60.520     182.425
  P      222.793     -60.526     184.173
  C      220.488     -59.355     184.470
  O      221.192     -60.511     184.018
  O      223.380     -60.969     185.477
  O      223.228     -61.609     183.059
  H      223.434     -62.443     183.521
  H      219.439     -59.488     184.304
  H      220.828     -58.496     183.930
  H      220.668     -59.214     185.515

 6  7  8  9  10  11  12  13  14  15  16  26  31  32  33  34  35 0
 6-311+G(2d,p)
 ****
 36  37 0
 6-311+G(2d,p)
 ****
 1  2  3  4  5  17  18  19  20  21  22  23  24  25 0
 3-21G
 ****
 27  28  29  30  38  39  40  41  42  43  44  45 0
 3-21G
 ****


