%nproc=1
%NoSave
%Mem=1900MB
#P OB98/GEN NMR

erre ene a

0 1
  C      449.788    -187.626      58.291
  O      448.519    -188.119      57.835
  P      447.993    -189.542      58.367
  C      445.462    -188.976      58.710
  O      446.446    -189.697      57.982
  C      444.060    -189.325      58.200
  O      443.796    -188.658      56.943
  C      443.849    -190.807      57.914
  O      443.658    -191.553      59.101
  C      442.617    -190.769      57.020
  O      441.415    -190.675      57.801
  C      442.849    -189.466      56.220
  N      443.294    -189.720      54.852
  C      442.378    -189.441      53.841
  O      441.232    -189.058      54.054
  N      442.825    -189.650      52.563
  C      444.040    -190.167      52.211
  O      444.372    -190.349      51.043
  C      444.932    -190.518      53.324
  C      444.518    -190.289      54.573
  O      447.917    -189.295      59.949
  O      448.868    -190.711      58.053
  H      440.671    -190.621      57.164
  H      448.045    -190.143      60.417
  H      442.191    -189.425      51.811
  H      445.893    -190.953      53.089
  H      445.167    -190.542      55.409
  H      441.924    -188.880      56.178
  H      442.523    -191.660      56.397
  H      444.695    -191.201      57.340
  H      443.327    -188.964      58.938
  H      445.631    -187.904      58.580
  H      445.555    -189.221      59.773
  P      444.580    -192.858      59.291
  C      444.267    -192.701      61.886
  O      444.151    -193.474      60.707
  O      446.009    -192.185      59.544
  O      444.526    -193.788      58.123
  H      445.939    -191.342      60.024
  H      444.083    -191.642      61.689
  H      445.271    -192.831      62.303
  H      443.530    -193.059      62.611
  H      449.983    -186.674      57.843
  H      450.559    -188.315      58.014
  H      449.768    -187.521      59.356

 3  4  5  6  7  8  9  10  11  12  13  23  28  29  30  31  32 0
 6-311+G(2d,p)
 ****
 33  34 0
 6-311+G(2d,p)
 ****
 1  2  14  15  16  17  18  19  20  21  22  24  25  26 0
 3-21G
 ****
 27  35  36  37  38  39  40  41  42  43  44  45 0
 3-21G
 ****


