%nproc=1
%NoSave
%Mem=1900MB
#P OB98/GEN NMR

erre ene a

0 1
  C       -6.484     201.539     613.925
  O       -5.710     200.354     614.015
  H       -7.518     201.264     613.691
  H       -6.106     202.178     613.119
  H       -6.471     202.089     614.870
  P       -4.188     200.458     614.498
  C       -2.185     201.980     613.922
  O       -3.452     201.488     613.513
  C       -1.285     202.178     612.686
  O       -1.952     202.988     611.714
  C        0.041     202.864     613.001
  O        0.942     201.980     613.624
  C        0.448     203.332     611.611
  O        1.051     202.257     610.867
  C       -0.923     203.728     610.994
  N       -1.165     205.168     611.041
  C       -0.212     205.981     610.427
  O        0.807     205.535     609.889
  N       -0.458     207.331     610.462
  C       -1.476     207.943     611.146
  O       -1.597     209.158     611.232
  C       -2.434     207.040     611.803
  C       -2.235     205.720     611.728
  O       -3.480     199.159     614.690
  O       -4.287     201.281     615.870
  H        1.769     201.907     611.429
  H       -4.154     200.678     616.627
  H        0.227     207.926     610.038
  H       -3.259     207.488     612.352
  H       -2.937     205.036     612.204
  H       -0.979     203.401     609.951
  H        1.177     204.144     611.639
  H       -0.138     203.747     613.623
  H       -1.107     201.186     612.247
  H       -1.732     201.255     614.596
  H       -2.318     202.937     614.450
  P        2.026     202.547     614.660
  C        4.153     204.004     614.571
  O        3.112     203.385     613.817
  O        2.608     201.541     615.628
  O        1.232     203.696     615.443
  H        1.210     203.480     616.409
  H        4.810     204.529     613.909
  H        4.704     203.255     615.100
  H        3.726     204.693     615.270

 6  7  8  9  10  11  12  13  14  15  16  26  31  32  33  34  35 0
 6-311+G(2d,p)
 ****
 36  37 0
 6-311+G(2d,p)
 ****
 1  2  3  4  5  17  18  19  20  21  22  23  24  25 0
 3-21G
 ****
 27  28  29  30  38  39  40  41  42  43  44  45 0
 3-21G
 ****


