%nproc=1
%NoSave
%Mem=1900MB
#P OB98/GEN NMR

erre ene a

0 1
  C       18.650      -5.492     -33.345
  O       19.650      -5.715     -32.362
  P       20.372      -4.439     -31.710
  C       22.059      -4.458     -33.679
  O       21.157      -3.690     -32.895
  C       23.294      -3.641     -34.058
  O       22.871      -2.442     -34.761
  C       24.148      -3.191     -32.868
  O       25.512      -3.168     -33.308
  C       23.681      -1.768     -32.629
  O       24.636      -1.000     -31.903
  C       23.445      -1.314     -34.067
  N       23.014       3.583     -35.469
  C       24.041       2.712     -35.554
  N       24.079       1.423     -35.159
  C       22.902       1.054     -34.627
  C       21.778       1.842     -34.443
  C       21.858       3.169     -34.897
  N       20.810       4.056     -34.823
  N       20.773       1.117     -33.837
  C       21.280      -0.085     -33.658
  N       22.554      -0.176     -34.142
  O       21.543      -5.103     -30.845
  O       19.498      -3.574     -30.870
  H       25.494      -1.063     -32.365
  H       21.362      -4.982     -29.892
  H       24.951       3.100     -36.004
  H       20.771      -0.914     -33.187
  H       24.380      -1.045     -34.574
  H       22.748      -1.776     -32.056
  H       24.047      -3.823     -31.980
  H       23.895      -4.231     -34.760
  H       21.551      -4.767     -34.596
  H       20.899       4.942     -35.292
  H       19.891       3.705     -34.575
  H       22.354      -5.355     -33.125
  P       26.498      -4.263     -32.678
  C       27.465      -2.505     -31.035
  O       26.849      -3.768     -31.198
  O       27.862      -4.042     -33.488
  O       26.007      -5.669     -32.799
  H       28.368      -4.874     -33.522
  H       27.121      -2.063     -30.096
  H       27.223      -1.824     -31.857
  H       28.549      -2.638     -30.989
  H       18.265      -6.432     -33.682
  H       19.075      -4.963     -34.172
  H       17.856      -4.913     -32.921

 3  4  5  6  7  8  9  10  11  12  22  25  29  30  31  32 0
 6-311+G(2d,p)
 ****
 33  36  37 0
 6-311+G(2d,p)
 ****
 1  2  13  14  15  16  17  18  19  20  21  23  24  26 0
 3-21G
 ****
 27  28  34  35  38  39  40  41  42  43  44  45  46  47  48 0
 3-21G
 ****


