%nproc=1
%NoSave
%Mem=1900MB
#P OB98/GEN NMR

erre ene a

0 1
  C     -169.415     189.030      65.727
  O     -169.801     190.195      65.027
  H     -169.174     188.250      64.998
  H     -170.234     188.675      66.357
  H     -168.529     189.224      66.336
  P     -170.212     191.496      65.874
  C     -172.283     192.039      67.334
  O     -171.727     191.204      66.331
  C     -173.740     192.355      67.011
  O     -173.846     193.264      65.893
  C     -174.582     191.150      66.602
  O     -174.916     190.293      67.682
  C     -175.795     191.860      66.034
  O     -176.607     192.369      67.107
  C     -175.124     193.009      65.245
  N     -174.927     192.682      63.832
  C     -176.072     192.347      63.101
  O     -177.178     192.325      63.639
  N     -175.935     192.010      61.774
  C     -174.757     191.986      61.233
  N     -174.679     191.637      59.919
  C     -173.522     192.310      61.973
  C     -173.677     192.651      63.248
  O     -169.986     192.813      65.204
  O     -169.424     191.339      67.257
  H     -175.998     192.760      67.762
  H     -169.635     192.127      67.817
  H     -172.561     192.248      61.483
  H     -172.816     192.897      63.862
  H     -175.714     193.931      65.318
  H     -176.431     191.210      65.426
  H     -174.097     190.588      65.794
  H     -174.167     192.867      67.885
  H     -175.541     191.418      59.439
  H     -171.684     192.955      67.387
  H     -173.797     191.519      59.436
  H     -172.246     191.536      68.305
  P     -174.881     188.710      67.392
  C     -176.471     187.054      66.145
  O     -176.270     188.354      66.679
  O     -175.015     188.074      68.851
  O     -173.669     188.225      66.659
  H     -174.138     187.812      69.196
  H     -177.447     186.994      65.710
  H     -176.385     186.330      66.928
  H     -175.733     186.859      65.395

 6  7  8  9  10  11  12  13  14  15  16  26  30  31  32  33  35 0
 6-311+G(2d,p)
 ****
 37  38 0
 6-311+G(2d,p)
 ****
 1  2  3  4  5  17  18  19  20  21  22  23  24  25 0
 3-21G
 ****
 27  28  29  34  36  39  40  41  42  43  44  45  46 0
 3-21G
 ****


