%nproc=1
%NoSave
%Mem=1900MB
#P OB98/GEN NMR

erre ene a

0 1
  C      282.607     277.281     107.536
  O      281.313     277.404     106.980
  H      283.339     277.313     106.725
  H      282.708     276.325     108.062
  H      282.809     278.108     108.223
  P      280.050     277.345     107.962
  C      280.646     279.781     108.587
  O      280.284     278.490     109.063
  C      280.178     280.853     109.568
  O      280.874     282.091     109.321
  C      278.685     281.175     109.477
  O      277.927     280.220     110.200
  C      278.660     282.550     110.127
  O      278.763     282.411     111.556
  C      279.945     283.188     109.566
  N      276.976     286.360     106.945
  C      276.744     285.721     108.148
  N      275.537     285.930     108.716
  N      277.609     284.934     108.734
  C      278.744     284.761     108.014
  C      279.082     285.326     106.806
  C      278.139     286.248     106.205
  O      278.317     286.856     105.150
  N      280.277     284.842     106.340
  C      280.685     284.025     107.292
  N      279.786     283.933     108.328
  O      279.730     276.000     108.542
  O      278.841     277.926     107.087
  H      278.615     283.292     111.942
  H      278.362     277.209     106.627
  H      276.266     286.948     106.542
  H      281.623     283.477     107.285
  H      280.415     283.865     110.285
  H      277.740     283.096     109.921
  H      274.777     286.400     108.244
  H      278.355     281.266     108.438
  H      275.328     285.419     109.569
  H      280.451     280.528     110.577
  H      280.172     279.916     107.614
  H      281.733     279.850     108.459
  P      276.324     280.168     110.094
  C      276.230     278.531     108.095
  O      276.007     279.850     108.559
  O      275.624     281.366     110.644
  O      275.927     278.795     110.808
  H      275.837     278.880     111.790
  H      275.976     278.470     107.057
  H      275.622     277.849     108.652
  H      277.261     278.277     108.225

 6  7  8  9  10  11  12  13  14  15  26  29  33  34 0
 6-311+G(2d,p)
 ****
 36  38  39  40  41 0
 6-311+G(2d,p)
 ****
 1  2  3  4  5  16  17  18  19  20  21  22  23  24  25 0
 3-21G
 ****
 27  28  30  31  32  35  37  42  43  44  45  46  47 0
 3-21G
 ****
 48  49 0
 3-21G
 ****


