%nproc=1
%NoSave
%Mem=1900MB
#P OB98/GEN NMR

erre ene a

0 1
  C      -27.206    -893.512     372.599
  O      -26.036    -894.022     373.203
  H      -28.079    -893.982     373.054
  H      -27.207    -893.722     371.526
  H      -27.272    -892.432     372.762
  P      -24.632    -893.522     372.605
  C      -22.258    -893.122     373.584
  O      -23.642    -893.322     373.848
  C      -21.482    -893.132     374.894
  O      -21.656    -891.862     375.578
  C      -21.948    -894.182     375.886
  O      -21.438    -895.472     375.577
  C      -21.372    -893.632     377.182
  O      -20.004    -894.012     377.368
  C      -21.507    -892.112     376.991
  N      -22.619    -891.562     377.764
  C      -22.288    -891.052     379.022
  O      -21.139    -891.062     379.468
  N      -23.327    -890.582     379.765
  C      -24.649    -890.602     379.404
  O      -25.540    -890.202     380.149
  C      -24.941    -891.162     378.083
  C      -23.929    -891.622     377.330
  O      -24.948    -892.032     372.122
  O      -24.088    -894.372     371.500
  H      -25.003    -892.002     371.145
  H      -19.767    -893.732     378.269
  H      -23.107    -890.202     380.675
  H      -25.982    -891.202     377.764
  H      -24.124    -892.052     376.349
  H      -20.587    -891.602     377.307
  H      -21.933    -894.012     378.040
  H      -23.036    -894.192     375.947
  H      -20.413    -893.252     374.669
  H      -22.113    -892.152     373.091
  H      -21.904    -893.912     372.909
  P      -22.192    -896.742     376.227
  C      -21.465    -899.262     376.390
  O      -21.412    -898.042     375.681
  O      -23.563    -896.722     375.404
  O      -22.341    -896.652     377.709
  H      -23.453    -896.322     374.525
  H      -20.889    -900.000     375.873
  H      -22.481    -899.588     376.462
  H      -21.065    -899.121     377.372

 6  7  8  9  10  11  12  13  14  15  16  27  31  32  33  34  35 0
 6-311+G(2d,p)
 ****
 36  37 0
 6-311+G(2d,p)
 ****
 1  2  3  4  5  17  18  19  20  21  22  23  24  25 0
 3-21G
 ****
 26  28  29  30  38  39  40  41  42  43  44  45 0
 3-21G
 ****


