%nproc=1
%NoSave
%Mem=1900MB
#P OB98/GEN NMR

erre ene a

0 1
  C      -58.965     417.917     671.552
  O      -57.847     418.757     671.759
  H      -59.585     417.933     672.454
  H      -58.640     416.888     671.363
  H      -59.557     418.282     670.709
  P      -56.786     418.848     670.559
  C      -57.134     421.394     670.375
  O      -56.210     420.346     670.648
  C      -56.782     422.642     671.194
  O      -57.225     422.440     672.559
  C      -55.279     422.939     671.230
  O      -55.078     424.357     671.176
  C      -54.840     422.417     672.590
  O      -53.674     423.071     673.075
  C      -56.100     422.657     673.428
  N      -53.708     421.245     677.716
  C      -53.489     422.257     676.850
  N      -54.187     422.571     675.736
  C      -55.233     421.739     675.578
  C      -55.577     420.661     676.376
  C      -54.752     420.421     677.487
  N      -54.955     419.368     678.359
  N      -56.693     420.024     675.862
  C      -57.018     420.711     674.781
  N      -56.154     421.753     674.562
  O      -57.287     418.435     669.216
  O      -55.569     417.980     671.132
  H      -53.461     422.699     673.958
  H      -55.392     418.188     672.069
  H      -52.638     422.897     677.075
  H      -57.861     420.495     674.129
  H      -56.146     423.678     673.822
  H      -54.626     421.342     672.511
  H      -54.737     422.456     670.412
  H      -57.348     423.495     670.797
  H      -58.153     421.076     670.625
  H      -54.332     419.274     679.141
  H      -55.742     418.757     678.217
  H      -57.090     421.618     669.307
  P      -53.634     424.903     670.740
  C      -54.546     426.462     668.891
  O      -53.816     426.374     670.113
  O      -52.791     423.964     669.944
  O      -52.949     425.224     672.160
  H      -52.002     424.994     672.107
  H      -54.597     427.484     668.579
  H      -55.536     426.084     669.039
  H      -54.052     425.884     668.138

 6  7  8  9  10  11  12  13  14  15  25  28  32  33  34  35 0
 6-311+G(2d,p)
 ****
 36  39  40 0
 6-311+G(2d,p)
 ****
 1  2  3  4  5  16  17  18  19  20  21  22  23  24 0
 3-21G
 ****
 26  27  29  30  31  37  38  41  42  43  44  45  46  47 0
 3-21G
 ****
 48 0
 3-21G
 ****


