%nproc=1
%NoSave
%Mem=1900MB
#P OB98/GEN NMR

erre ene a

0 1
  C       -3.810     707.589    -253.778
  O       -4.181     707.690    -252.420
  H       -4.681     707.266    -254.353
  H       -3.023     706.840    -253.901
  H       -3.470     708.549    -254.162
  P       -3.074     708.098    -251.327
  C       -3.055     710.630    -251.758
  O       -3.461     709.593    -250.868
  C       -4.178     711.655    -251.962
  O       -5.218     711.073    -252.806
  C       -4.849     712.101    -250.656
  O       -4.984     713.527    -250.637
  C       -6.237     711.462    -250.718
  O       -7.208     712.151    -249.929
  C       -6.477     711.471    -252.237
  N       -7.562     710.579    -252.623
  C       -8.866     711.079    -252.466
  O       -9.036     712.222    -252.020
  N       -9.926     710.271    -252.748
  C       -9.725     709.033    -253.104
  N      -10.823     708.276    -253.346
  C       -8.370     708.452    -253.269
  C       -7.355     709.270    -253.008
  O       -1.662     707.922    -251.785
  O       -3.428     707.232    -250.026
  H       -7.239     713.093    -250.226
  H       -2.629     707.154    -249.469
  H       -8.254     707.436    -253.570
  H       -6.322     708.942    -253.091
  H       -6.703     712.479    -252.585
  H       -6.180     710.434    -250.350
  H       -4.310     711.778    -249.760
  H       -3.776     712.508    -252.517
  H      -11.730     708.711    -253.225
  H       -2.771     710.181    -252.722
  H      -10.787     707.300    -253.617
  H       -2.185     711.134    -251.322
  P       -4.214     714.290    -249.455
  C       -2.529     715.906    -250.621
  O       -3.800     715.750    -249.999
  O       -2.819     713.516    -249.349
  O       -4.959     714.276    -248.162
  H       -2.790     713.008    -248.522
  H       -2.403     716.924    -250.925
  H       -2.470     715.268    -251.478
  H       -1.758     715.643    -249.927

 6  7  8  9  10  11  12  13  14  15  16  26  30  31  32  33  35 0
 6-311+G(2d,p)
 ****
 37  38 0
 6-311+G(2d,p)
 ****
 1  2  3  4  5  17  18  19  20  21  22  23  24  25 0
 3-21G
 ****
 27  28  29  34  36  39  40  41  42  43  44  45  46 0
 3-21G
 ****


