%nproc=1
%NoSave
%Mem=1900MB
#P OB98/GEN NMR

erre ene a

0 1
  C     -294.899     364.245     702.833
  O     -293.575     363.780     702.950
  H     -295.491     363.829     703.647
  H     -295.322     363.906     701.880
  H     -294.945     365.336     702.883
  P     -292.406     364.565     702.186
  C     -292.772     363.357     699.931
  O     -291.866     363.630     701.000
  C     -292.040     363.147     698.609
  O     -291.434     364.388     698.183
  C     -290.907     362.121     698.720
  O     -291.308     360.776     698.528
  C     -289.959     362.574     697.610
  O     -290.302     361.965     696.352
  C     -290.179     364.088     697.552
  N     -285.519     366.147     697.111
  C     -286.171     365.291     696.252
  N     -285.475     364.903     695.158
  N     -287.383     364.838     696.452
  C     -287.911     365.233     697.646
  C     -287.349     366.064     698.588
  C     -286.040     366.611     698.312
  O     -285.425     367.386     699.035
  N     -288.164     366.193     699.687
  C     -289.170     365.381     699.436
  N     -289.098     364.836     698.178
  O     -291.187     364.528     703.234
  O     -292.728     365.971     701.796
  H     -291.238     362.158     696.166
  H     -290.645     365.332     703.127
  H     -284.595     366.477     696.884
  H     -290.003     365.188     700.115
  H     -290.249     364.446     696.514
  H     -288.922     362.278     697.837
  H     -284.514     365.148     694.992
  H     -290.381     362.217     699.679
  H     -285.836     364.130     694.599
  H     -292.766     362.864     697.830
  H     -293.431     364.227     699.860
  H     -293.395     362.491     700.170
  P     -291.349     359.740     699.755
  C     -288.799     359.087     699.809
  O     -290.146     358.713     699.571
  O     -292.642     358.860     699.424
  O     -291.408     360.360     701.111
  H     -293.408     359.168     699.952
  H     -288.159     358.249     699.626
  H     -288.691     359.404     700.825
  H     -288.531     359.890     699.155

 6  7  8  9  10  11  12  13  14  15  26  29  33  34 0
 6-311+G(2d,p)
 ****
 36  38  39  40  41 0
 6-311+G(2d,p)
 ****
 1  2  3  4  5  16  17  18  19  20  21  22  23  24  25 0
 3-21G
 ****
 27  28  30  31  32  35  37  42  43  44  45  46  47 0
 3-21G
 ****
 48  49 0
 3-21G
 ****


