%nproc=1
%NoSave
%Mem=1900MB
#P OB98/GEN NMR

erre ene a

0 1
  C      -93.880    -198.205    -196.246
  O      -92.680    -198.596    -196.878
  H      -93.635    -197.550    -195.405
  H      -94.411    -199.079    -195.863
  H      -94.520    -197.654    -196.942
  P      -92.766    -199.570    -198.150
  C      -90.860    -198.391    -199.453
  O      -91.276    -199.557    -198.758
  C      -89.337    -198.309    -199.481
  O      -88.799    -198.070    -198.165
  C      -88.634    -199.573    -199.957
  O      -88.737    -199.798    -201.354
  C      -87.214    -199.265    -199.522
  O      -86.629    -198.314    -200.428
  C      -87.460    -198.641    -198.130
  N      -87.343    -199.615    -197.046
  C      -86.047    -200.039    -196.720
  O      -85.073    -199.609    -197.339
  N      -85.886    -200.971    -195.725
  C      -86.928    -201.459    -195.122
  N      -86.711    -202.387    -194.149
  C      -88.310    -201.052    -195.448
  C      -88.445    -200.141    -196.400
  O      -93.859    -199.277    -199.126
  O      -92.845    -201.041    -197.524
  H      -85.706    -198.184    -200.147
  H      -92.912    -201.684    -198.272
  H      -89.145    -201.511    -194.934
  H      -89.429    -199.798    -196.705
  H      -86.761    -197.815    -197.943
  H      -86.568    -200.145    -199.510
  H      -88.988    -200.451    -199.397
  H      -89.065    -197.443    -200.101
  H      -85.753    -202.643    -193.948
  H      -91.293    -197.520    -198.949
  H      -87.466    -202.873    -193.679
  H      -91.224    -198.423    -200.486
  P      -88.406    -201.279    -201.881
  C      -90.238    -201.270    -203.747
  O      -88.854    -201.320    -203.420
  O      -89.488    -202.181    -201.132
  O      -87.002    -201.740    -201.639
  H      -89.100    -202.611    -200.345
  H      -90.355    -201.307    -204.810
  H      -90.660    -200.361    -203.373
  H      -90.740    -202.105    -203.304

 6  7  8  9  10  11  12  13  14  15  16  26  30  31  32  33  35 0
 6-311+G(2d,p)
 ****
 37  38 0
 6-311+G(2d,p)
 ****
 1  2  3  4  5  17  18  19  20  21  22  23  24  25 0
 3-21G
 ****
 27  28  29  34  36  39  40  41  42  43  44  45  46 0
 3-21G
 ****


