%nproc=1
%NoSave
%Mem=1900MB
#P OB98/GEN NMR

erre ene a

0 1
  C      -39.662    -362.243     376.406
  O      -40.397    -361.149     375.846
  P      -41.420    -360.363     376.799
  C      -39.920    -358.406     377.639
  O      -40.579    -359.624     377.950
  C      -40.075    -357.402     378.787
  O      -39.516    -357.909     380.016
  C      -39.374    -356.076     378.538
  O      -40.162    -355.214     377.730
  C      -39.276    -355.527     379.954
  O      -40.539    -354.948     380.343
  C      -38.996    -356.789     380.773
  N      -35.302    -356.601     384.318
  C      -36.611    -356.270     384.361
  N      -37.527    -356.331     383.370
  C      -36.974    -356.802     382.243
  C      -35.655    -357.179     382.046
  C      -34.795    -357.066     383.150
  N      -33.461    -357.403     383.100
  N      -35.456    -357.603     380.749
  C      -36.637    -357.502     380.179
  N      -37.587    -357.016     381.037
  O      -42.162    -361.542     377.587
  O      -42.389    -359.498     376.063
  H      -40.588    -354.067     379.923
  H      -43.089    -361.292     377.754
  H      -36.972    -355.909     385.323
  H      -36.857    -357.771     379.152
  H      -39.511    -356.779     381.744
  H      -38.524    -354.738     380.047
  H      -38.367    -356.234     378.126
  H      -41.150    -357.230     378.942
  H      -40.327    -357.985     376.717
  H      -32.913    -357.319     383.938
  H      -33.085    -357.772     382.237
  H      -38.864    -358.614     377.443
  P      -39.405    -354.412     376.562
  C      -39.497    -356.295     374.771
  O      -38.700    -355.530     375.655
  O      -38.191    -353.712     377.333
  O      -40.260    -353.425     375.839
  H      -37.955    -352.872     376.894
  H      -38.846    -356.771     374.032
  H      -40.217    -355.664     374.244
  H      -40.027    -357.074     375.329
  H      -39.025    -362.666     375.657
  H      -40.344    -362.989     376.757
  H      -39.067    -361.892     377.223

 3  4  5  6  7  8  9  10  11  12  22  25  29  30  31  32 0
 6-311+G(2d,p)
 ****
 33  36  37 0
 6-311+G(2d,p)
 ****
 1  2  13  14  15  16  17  18  19  20  21  23  24  26 0
 3-21G
 ****
 27  28  34  35  38  39  40  41  42  43  44  45  46  47  48 0
 3-21G
 ****


