%nproc=1
%NoSave
%Mem=1900MB
#P OB98/GEN NMR

erre ene a

0 1
  C       45.087     -81.503      55.397
  O       45.543     -81.371      54.066
  H       45.952     -81.546      56.063
  H       44.516     -82.428      55.504
  H       44.467     -80.647      55.680
  P       44.447     -81.054      52.941
  C       44.115     -78.515      53.391
  O       44.645     -79.513      52.532
  C       44.274     -77.136      52.750
  O       45.694     -76.874      52.565
  C       43.599     -77.005      51.379
  O       43.078     -75.677      51.258
  C       44.755     -77.175      50.411
  O       44.526     -76.598      49.132
  C       45.885     -76.492      51.187
  N       47.210     -76.885      50.713
  C       47.673     -76.289      49.544
  O       47.087     -75.398      48.932
  N       48.874     -76.759      49.078
  C       49.621     -77.753      49.635
  O       50.679     -78.144      49.157
  C       49.076     -78.350      50.863
  C       47.913     -77.897      51.335
  O       43.077     -81.045      53.767
  O       44.416     -82.003      51.790
  H       42.688     -81.939      53.791
  H       43.930     -77.200      48.642
  H       49.223     -76.338      48.231
  H       49.637     -79.150      51.327
  H       47.472     -78.330      52.227
  H       45.782     -75.403      51.133
  H       44.968     -78.240      50.268
  H       42.802     -77.733      51.200
  H       43.896     -76.379      53.447
  H       44.655     -78.530      54.342
  H       43.058     -78.728      53.582
  P       41.631     -75.512      50.582
  C       40.464     -74.099      52.453
  O       41.042     -74.137      51.157
  O       40.805     -76.649      51.341
  O       41.665     -75.637      49.096
  H       41.075     -76.761      52.268
  H       40.128     -73.105      52.665
  H       41.195     -74.390      53.178
  H       39.634     -74.773      52.493

 6  7  8  9  10  11  12  13  14  15  16  27  31  32  33  34  35 0
 6-311+G(2d,p)
 ****
 36  37 0
 6-311+G(2d,p)
 ****
 1  2  3  4  5  17  18  19  20  21  22  23  24  25 0
 3-21G
 ****
 26  28  29  30  38  39  40  41  42  43  44  45 0
 3-21G
 ****


