%nproc=1
%NoSave
%Mem=1900MB
#P OB98/GEN NMR

erre ene a

0 1
  C      -37.687    -651.416     931.427
  O      -37.556    -650.527     932.517
  H      -36.976    -652.240     931.536
  H      -38.700    -651.828     931.428
  H      -37.517    -650.898     930.479
  P      -36.261    -649.581     932.544
  C      -38.040    -647.735     932.133
  O      -36.708    -648.179     931.901
  C      -38.145    -646.227     931.905
  O      -37.342    -645.558     932.923
  C      -37.655    -645.755     930.533
  O      -38.521    -644.704     930.079
  C      -36.287    -645.168     930.828
  O      -35.886    -644.185     929.879
  C      -36.499    -644.616     932.233
  N      -33.554    -641.223     934.624
  C      -34.861    -641.196     934.282
  N      -35.582    -642.172     933.688
  C      -34.843    -643.278     933.518
  C      -33.494    -643.455     933.825
  C      -32.842    -642.344     934.383
  N      -31.498    -642.327     934.677
  N      -33.084    -644.716     933.442
  C      -34.135    -645.279     932.899
  N      -35.225    -644.446     932.919
  O      -35.332    -650.238     931.406
  O      -35.552    -649.490     933.854
  H      -35.076    -643.742     930.208
  H      -34.787    -650.944     931.798
  H      -35.396    -640.279     934.496
  H      -34.166    -646.260     932.446
  H      -36.999    -643.633     932.231
  H      -35.539    -645.969     930.827
  H      -37.618    -646.548     929.776
  H      -39.187    -645.926     932.075
  H      -38.315    -647.964     933.163
  H      -31.091    -641.458     934.976
  H      -30.933    -643.123     934.403
  H      -38.716    -648.267     931.455
  P      -39.224    -644.888     928.653
  C      -41.725    -645.148     929.345
  O      -40.546    -645.774     928.842
  O      -38.226    -645.878     927.878
  O      -39.421    -643.612     927.898
  H      -38.230    -645.680     926.924
  H      -42.512    -645.870     929.411
  H      -42.020    -644.359     928.685
  H      -41.528    -644.745     930.316

 6  7  8  9  10  11  12  13  14  15  25  28  32  33  34  35 0
 6-311+G(2d,p)
 ****
 36  39  40 0
 6-311+G(2d,p)
 ****
 1  2  3  4  5  16  17  18  19  20  21  22  23  24 0
 3-21G
 ****
 26  27  29  30  31  37  38  41  42  43  44  45  46  47 0
 3-21G
 ****
 48 0
 3-21G
 ****


