%nproc=1
%NoSave
%Mem=1900MB
#P OB98/GEN NMR

erre ene a

0 1
  C      183.293      26.997      29.086
  O      184.523      27.546      28.673
  P      185.366      28.583      29.543
  C      184.670      30.588      28.016
  O      184.753      30.048      29.330
  C      183.664      31.747      27.960
  O      182.443      31.331      28.626
  C      184.184      32.983      28.712
  O      183.929      34.217      28.050
  C      183.597      32.805      30.106
  O      183.547      34.008      30.860
  C      182.251      32.157      29.795
  N      178.295      31.332      32.876
  C      178.365      32.119      31.744
  N      177.304      32.922      31.513
  N      179.397      32.137      30.940
  C      180.427      31.366      31.362
  C      180.473      30.544      32.464
  C      179.313      30.507      33.324
  O      179.251      29.911      34.400
  N      181.704      29.965      32.618
  C      182.419      30.463      31.627
  N      181.696      31.345      30.859
  O      186.854      28.431      29.507
  O      184.876      28.227      31.040
  H      183.078      33.814      31.692
  H      185.641      28.368      31.634
  H      177.502      31.422      33.501
  H      183.465      30.246      31.439
  H      181.492      32.904      29.557
  H      184.247      32.116      30.652
  H      176.564      33.036      32.189
  H      185.278      32.957      28.783
  H      177.435      33.678      30.844
  H      183.418      31.963      26.915
  H      184.336      29.769      27.368
  H      185.652      30.912      27.670
  P      184.797      35.556      28.058
  C      183.326      36.544      29.915
  O      184.647      36.252      29.494
  O      184.017      36.562      27.091
  O      186.208      35.388      27.599
  H      184.661      37.073      26.563
  H      183.373      37.248      30.751
  H      182.838      35.625      30.250
  H      182.748      36.993      29.102
  H      182.928      26.332      28.332
  H      182.585      27.784      29.240
  H      183.432      26.458      30.000

 3  4  5  6  7  8  9  10  11  12  23  26  30  31 0
 6-311+G(2d,p)
 ****
 33  35  36  37  38 0
 6-311+G(2d,p)
 ****
 1  2  13  14  15  16  17  18  19  20  21  22  24  25 0
 3-21G
 ****
 27  28  29  32  34  39  40  41  42  43  44  45  46  47  48  49 0
 3-21G
 ****


