%nproc=1
%NoSave
%Mem=1900MB
#P OB98/GEN NMR

erre ene a

0 1
  C      550.612     244.136     600.263
  O      551.489     244.979     599.546
  P      553.043     244.588     599.519
  C      553.946     245.374     601.841
  O      553.480     244.287     601.032
  C      554.925     244.860     602.886
  O      554.219     244.171     603.935
  C      555.955     243.871     602.366
  O      556.963     244.519     601.615
  C      556.430     243.224     603.670
  O      557.360     244.106     604.328
  C      555.104     243.158     604.488
  N      554.104     238.779     606.967
  C      554.798     239.884     607.313
  N      555.042     241.003     606.603
  C      554.463     240.897     605.388
  C      553.753     239.846     604.873
  C      553.558     238.746     605.709
  N      552.855     237.620     605.340
  N      553.349     240.100     603.568
  C      553.796     241.316     603.324
  N      554.477     241.857     604.393
  O      553.777     245.974     599.185
  O      553.402     243.520     598.535
  H      558.155     244.171     603.759
  H      554.572     245.825     598.650
  H      555.221     239.866     608.339
  H      553.669     241.848     602.384
  H      555.246     243.378     605.539
  H      556.911     242.269     603.529
  H      555.466     243.111     601.734
  H      555.419     245.732     603.339
  H      553.083     245.848     602.344
  H      552.904     236.814     605.948
  H      552.586     237.521     604.365
  H      554.418     246.121     601.180
  P      557.663     243.710     600.423
  C      559.263     242.374     601.906
  O      558.109     242.319     601.094
  O      559.052     244.487     600.258
  O      556.810     243.592     599.184
  H      559.507     244.617     601.109
  H      559.413     241.377     602.338
  H      559.114     243.091     602.726
  H      560.133     242.642     601.316
  H      549.615     244.518     600.194
  H      550.911     244.101     601.290
  H      550.646     243.150     599.848

 3  4  5  6  7  8  9  10  11  12  22  25  29  30  31  32 0
 6-311+G(2d,p)
 ****
 33  36  37 0
 6-311+G(2d,p)
 ****
 1  2  13  14  15  16  17  18  19  20  21  23  24  26 0
 3-21G
 ****
 27  28  34  35  38  39  40  41  42  43  44  45  46  47  48 0
 3-21G
 ****


