%nproc=1
%NoSave
%Mem=1900MB
#P OB98/GEN NMR

erre ene a

0 1
  C     -452.752    -779.862    1166.315
  O     -452.192    -780.994    1165.689
  P     -453.112    -782.186    1165.123
  C     -452.383    -781.428    1162.766
  O     -452.501    -782.513    1163.675
  C     -451.353    -781.724    1161.698
  O     -450.038    -781.548    1162.258
  C     -451.368    -783.154    1161.136
  O     -452.316    -783.366    1160.074
  C     -449.958    -783.252    1160.577
  O     -449.896    -782.579    1159.294
  C     -449.146    -782.493    1161.620
  N     -445.025    -785.292    1162.812
  C     -445.297    -784.489    1161.758
  N     -446.421    -783.783    1161.508
  C     -447.322    -783.945    1162.482
  C     -447.165    -784.725    1163.635
  C     -445.961    -785.428    1163.783
  N     -445.689    -786.231    1164.865
  N     -448.316    -784.644    1164.423
  C     -449.114    -783.837    1163.783
  N     -448.545    -783.360    1162.602
  O     -454.575    -781.898    1165.164
  O     -452.700    -783.450    1165.991
  H     -450.668    -782.888    1158.776
  H     -453.377    -784.150    1165.904
  H     -444.514    -784.385    1161.023
  H     -450.100    -783.545    1164.090
  H     -448.321    -781.888    1161.165
  H     -449.655    -784.280    1160.386
  H     -451.494    -783.898    1161.926
  H     -451.472    -780.982    1160.874
  H     -452.073    -780.535    1163.329
  H     -444.712    -786.592    1164.959
  H     -446.307    -786.199    1165.662
  H     -453.372    -781.206    1162.328
  P     -453.027    -784.802    1160.024
  C     -455.247    -784.231    1161.303
  O     -454.604    -784.493    1160.078
  O     -452.547    -785.772    1161.040
  O     -452.795    -785.257    1158.510
  H     -453.252    -784.714    1157.824
  H     -456.255    -783.897    1161.103
  H     -454.730    -783.454    1161.864
  H     -455.299    -785.163    1161.902
  H     -451.970    -779.196    1166.614
  H     -453.308    -780.169    1167.176
  H     -453.403    -779.361    1165.630

 3  4  5  6  7  8  9  10  11  12  22  25  29  30  31  32 0
 6-311+G(2d,p)
 ****
 33  36  37 0
 6-311+G(2d,p)
 ****
 1  2  13  14  15  16  17  18  19  20  21  23  24  26 0
 3-21G
 ****
 27  28  34  35  38  39  40  41  42  43  44  45  46  47  48 0
 3-21G
 ****


