%nproc=1
%NoSave
%Mem=1900MB
#P OB98/GEN NMR

erre ene a

0 1
  C      -52.132       0.792      25.694
  O      -51.982      -0.080      24.591
  H      -51.140       1.111      26.026
  H      -52.627       0.269      26.515
  H      -52.710       1.676      25.412
  P      -53.324      -0.503      23.820
  C      -55.361      -2.002      24.401
  O      -54.026      -1.636      24.714
  C      -55.707      -3.339      25.051
  O      -54.903      -4.397      24.484
  C      -55.469      -3.384      26.557
  O      -56.554      -2.818      27.280
  C      -55.383      -4.885      26.781
  O      -56.708      -5.455      26.766
  C      -54.594      -5.342      25.547
  N      -50.614      -8.322      26.532
  C      -51.954      -8.640      26.417
  N      -52.283      -9.936      26.601
  N      -52.891      -7.767      26.152
  C      -52.417      -6.506      26.005
  C      -51.114      -6.067      26.092
  C      -50.089      -7.045      26.378
  O      -48.885      -6.821      26.467
  N      -51.024      -4.719      25.871
  C      -52.269      -4.337      25.671
  N      -53.155      -5.383      25.748
  O      -52.781      -1.320      22.551
  O      -54.205       0.625      23.401
  H      -57.198      -5.009      26.051
  H      -53.363      -1.138      21.788
  H      -49.936      -9.032      26.749
  H      -52.581      -3.323      25.465
  H      -54.899      -6.336      25.202
  H      -54.935      -5.142      27.741
  H      -51.618     -10.651      26.857
  H      -54.514      -2.919      26.827
  H      -53.254     -10.200      26.489
  H      -56.756      -3.565      24.819
  H      -55.465      -2.092      23.315
  H      -56.039      -1.222      24.761
  P      -56.200      -1.802      28.475
  C      -55.179      -2.199      30.831
  O      -55.969      -2.723      29.769
  O      -57.605      -1.095      28.772
  O      -55.127      -0.816      28.169
  H      -57.459      -0.230      29.201
  H      -55.115      -2.921      31.618
  H      -55.632      -1.304      31.204
  H      -54.197      -1.977      30.469

 6  7  8  9  10  11  12  13  14  15  26  29  33  34 0
 6-311+G(2d,p)
 ****
 36  38  39  40  41 0
 6-311+G(2d,p)
 ****
 1  2  3  4  5  16  17  18  19  20  21  22  23  24  25 0
 3-21G
 ****
 27  28  30  31  32  35  37  42  43  44  45  46  47 0
 3-21G
 ****
 48  49 0
 3-21G
 ****


