%nproc=1
%NoSave
%Mem=1900MB
#P OB98/GEN NMR

erre ene a

0 1
  C     -829.593    -469.210     -12.325
  O     -829.350    -469.405     -13.702
  H     -830.418    -469.853     -12.015
  H     -829.870    -468.168     -12.130
  H     -828.703    -469.473     -11.744
  P     -828.244    -468.476     -14.388
  C     -830.011    -467.193     -15.803
  O     -828.978    -467.118     -14.826
  C     -831.136    -466.234     -15.423
  O     -831.550    -466.475     -14.059
  C     -830.747    -464.765     -15.485
  O     -830.748    -464.251     -16.801
  C     -831.835    -464.143     -14.621
  O     -833.031    -463.890     -15.367
  C     -832.075    -465.222     -13.548
  N     -831.464    -464.864     -12.266
  C     -831.902    -463.657     -11.721
  O     -832.737    -462.934     -12.254
  N     -831.303    -463.294     -10.544
  C     -830.304    -463.968      -9.905
  O     -829.772    -463.547      -8.885
  C     -829.876    -465.226     -10.539
  C     -830.468    -465.605     -11.682
  O     -827.951    -469.216     -15.776
  O     -826.999    -468.285     -13.583
  H     -827.085    -469.664     -15.735
  H     -832.755    -463.402     -16.167
  H     -831.608    -462.417     -10.132
  H     -829.081    -465.791     -10.055
  H     -830.154    -466.522     -12.178
  H     -833.148    -465.375     -13.395
  H     -831.502    -463.197     -14.208
  H     -829.773    -464.617     -14.990
  H     -832.000    -466.426     -16.086
  H     -830.415    -468.211     -15.835
  H     -829.598    -466.949     -16.783
  P     -829.332    -463.880     -17.460
  C     -830.476    -461.618     -18.143
  O     -829.326    -462.293     -17.654
  O     -829.521    -464.474     -18.932
  O     -828.173    -464.445     -16.696
  H     -830.461    -464.487     -19.195
  H     -830.275    -460.569     -18.202
  H     -831.298    -461.787     -17.479
  H     -830.721    -461.990     -19.116

 6  7  8  9  10  11  12  13  14  15  16  27  31  32  33  34  35 0
 6-311+G(2d,p)
 ****
 36  37 0
 6-311+G(2d,p)
 ****
 1  2  3  4  5  17  18  19  20  21  22  23  24  25 0
 3-21G
 ****
 26  28  29  30  38  39  40  41  42  43  44  45 0
 3-21G
 ****


