%nproc=1
%NoSave
%Mem=1900MB
#P OB98/GEN NMR

erre ene a

0 1
  C      463.155    -448.027    -406.210
  O      461.897    -447.804    -406.840
  P      461.414    -448.799    -408.007
  C      459.591    -449.975    -406.593
  O      460.793    -450.121    -407.358
  C      458.748    -451.245    -406.700
  O      458.217    -451.415    -408.037
  C      459.534    -452.526    -406.443
  O      459.965    -452.733    -405.096
  C      458.660    -453.586    -407.056
  O      457.611    -453.991    -406.171
  C      458.070    -452.829    -408.276
  N      458.708    -453.220    -409.541
  C      458.254    -454.404    -410.112
  O      457.408    -455.131    -409.588
  N      458.845    -454.759    -411.288
  C      459.851    -454.071    -411.931
  O      460.353    -454.453    -412.985
  C      460.303    -452.844    -411.270
  C      459.726    -452.472    -410.127
  O      462.403    -449.028    -409.099
  O      460.111    -448.053    -408.579
  H      457.041    -453.227    -406.006
  H      460.133    -448.134    -409.558
  H      458.528    -455.610    -411.732
  H      461.088    -452.279    -411.745
  H      460.041    -451.576    -409.623
  H      456.996    -453.036    -408.371
  H      459.227    -454.486    -407.307
  H      460.456    -452.472    -407.040
  H      457.890    -451.152    -406.021
  H      459.033    -449.110    -406.953
  H      459.870    -449.764    -405.549
  P      461.475    -452.417    -404.605
  C      460.567    -450.528    -403.067
  O      461.501    -450.908    -404.047
  O      462.589    -452.846    -405.481
  O      461.527    -453.271    -403.231
  H      462.447    -453.583    -403.126
  H      460.721    -449.468    -402.812
  H      460.687    -451.117    -402.161
  H      459.554    -450.638    -403.459
  H      463.317    -447.278    -405.463
  H      463.934    -447.976    -406.941
  H      463.158    -448.994    -405.752

 3  4  5  6  7  8  9  10  11  12  13  23  28  29  30  31  32 0
 6-311+G(2d,p)
 ****
 33  34 0
 6-311+G(2d,p)
 ****
 1  2  14  15  16  17  18  19  20  21  22  24  25  26  27 0
 3-21G
 ****
 35  36  37  38  39  40  41  42  43  44  45 0
 3-21G
 ****


