%nproc=1
%NoSave
%Mem=1900MB
#P OB98/GEN NMR

erre ene a

0 1
  C      -63.356     295.264    -202.416
  O      -62.291     295.919    -203.097
  P      -62.524     296.397    -204.609
  C      -61.468     298.293    -206.120
  O      -61.344     297.374    -205.061
  C      -60.447     299.437    -205.926
  O      -60.923     300.367    -204.924
  C      -59.079     298.939    -205.465
  O      -58.255     298.569    -206.552
  C      -58.555     300.143    -204.695
  O      -58.080     301.150    -205.599
  C      -59.844     300.628    -203.980
  N      -60.198     300.003    -202.686
  C      -59.301     300.069    -201.619
  O      -58.205     300.618    -201.667
  N      -59.714     299.481    -200.449
  C      -60.960     298.998    -200.182
  O      -61.299     298.538    -199.101
  C      -61.918     299.085    -201.299
  C      -61.499     299.564    -202.474
  O      -63.801     297.349    -204.517
  O      -62.728     295.271    -205.585
  H      -58.012     301.985    -205.096
  H      -64.548     296.967    -205.015
  H      -59.048     299.460    -199.689
  H      -62.933     298.756    -201.116
  H      -62.198     299.633    -203.303
  H      -59.810     301.704    -203.813
  H      -57.708     299.868    -204.067
  H      -59.190     298.110    -204.754
  H      -60.351     299.973    -206.878
  H      -62.480     298.708    -206.159
  H      -61.295     297.786    -207.072
  P      -58.231     297.042    -207.049
  C      -57.812     295.906    -209.307
  O      -57.655     297.085    -208.551
  O      -59.495     296.271    -206.867
  O      -57.011     296.394    -206.230
  H      -57.335     295.939    -205.420
  H      -57.524     296.117    -210.348
  H      -58.854     295.567    -209.290
  H      -57.162     295.119    -208.914
  H      -63.043     295.011    -201.425
  H      -63.623     294.373    -202.945
  H      -64.203     295.916    -202.367

 3  4  5  6  7  8  9  10  11  12  13  23  28  29  30  31  32 0
 6-311+G(2d,p)
 ****
 33  34 0
 6-311+G(2d,p)
 ****
 1  2  14  15  16  17  18  19  20  21  22  24  25  26  27 0
 3-21G
 ****
 35  36  37  38  39  40  41  42  43  44  45 0
 3-21G
 ****


