%nproc=1
%NoSave
%Mem=1900MB
#P OB98/GEN NMR

erre ene a

0 1
  C     -915.838       0.627    -496.546
  O     -915.649       0.106    -497.844
  H     -916.130      -0.194    -495.879
  H     -916.645       1.367    -496.559
  H     -914.920       1.083    -496.173
  P     -915.067       1.100    -498.960
  C     -917.494       1.870    -499.493
  O     -916.266       1.378    -499.996
  C     -918.347       2.449    -500.621
  O     -917.692       3.635    -501.146
  C     -918.565       1.479    -501.788
  O     -919.904       1.636    -502.277
  C     -917.578       1.962    -502.841
  O     -917.979       1.600    -504.161
  C     -917.541       3.468    -502.564
  N     -916.309       4.072    -503.056
  C     -916.352       4.622    -504.332
  O     -917.381       4.579    -505.011
  N     -915.203       5.160    -504.868
  C     -914.081       5.066    -504.208
  N     -912.974       5.592    -504.797
  C     -913.979       4.432    -502.879
  C     -915.120       3.969    -502.361
  O     -914.063       0.171    -499.801
  O     -914.402       2.330    -498.438
  H     -917.271       1.860    -504.783
  H     -913.314       0.692    -500.150
  H     -913.014       4.365    -502.380
  H     -915.136       3.471    -501.408
  H     -918.389       3.965    -503.053
  H     -916.597       1.505    -502.650
  H     -918.407       0.428    -501.516
  H     -919.307       2.771    -500.200
  H     -913.075       6.010    -505.715
  H     -917.282       2.661    -498.762
  H     -912.052       5.541    -504.387
  H     -918.024       1.054    -498.983
  P     -921.026       0.717    -501.606
  C     -921.715       0.057    -504.021
  O     -922.150       0.411    -502.718
  O     -921.762       1.705    -500.585
  O     -920.479      -0.483    -500.901
  H     -921.526       1.486    -499.665
  H     -922.566      -0.116    -504.646
  H     -921.123      -0.833    -503.970
  H     -921.128       0.853    -504.429

 6  7  8  9  10  11  12  13  14  15  16  26  30  31  32  33  35 0
 6-311+G(2d,p)
 ****
 37  38 0
 6-311+G(2d,p)
 ****
 1  2  3  4  5  17  18  19  20  21  22  23  24  25 0
 3-21G
 ****
 27  28  29  34  36  39  40  41  42  43  44  45  46 0
 3-21G
 ****


