%nproc=1
%NoSave
%Mem=1900MB
#P OB98/GEN NMR

erre ene a

0 1
  C      -56.595     137.890     551.421
  O      -55.566     137.409     552.265
  H      -56.638     138.979     551.505
  H      -57.556     137.473     551.733
  H      -56.392     137.623     550.380
  P      -55.185     135.862     552.112
  C      -53.082     136.051     550.557
  O      -54.448     135.689     550.691
  C      -52.425     135.221     549.458
  O      -52.582     133.811     549.719
  C      -53.047     135.403     548.083
  O      -52.727     136.648     547.503
  C      -52.446     134.215     547.342
  O      -51.141     134.517     546.834
  C      -52.365     133.140     548.453
  N      -53.313     132.064     548.232
  C      -53.209     131.423     546.989
  O      -52.345     131.769     546.186
  N      -54.111     130.438     546.684
  C      -55.050     130.137     547.526
  N      -55.933     129.173     547.147
  C      -55.195     130.791     548.842
  C      -54.303     131.736     549.127
  O      -56.610     135.178     551.871
  O      -54.418     135.290     553.258
  H      -51.278     135.030     546.012
  H      -57.144     135.616     551.188
  H      -55.986     130.495     549.515
  H      -54.335     132.268     550.071
  H      -51.359     132.709     548.500
  H      -53.061     133.919     546.489
  H      -54.134     135.255     548.138
  H      -51.353     135.456     549.445
  H      -55.830     128.791     546.213
  H      -52.551     135.913     551.504
  H      -56.746     128.913     547.685
  H      -53.041     137.114     550.306
  P      -53.476     137.169     546.188
  C      -54.702     139.269     547.041
  O      -54.824     137.896     546.681
  O      -53.688     136.147     545.123
  O      -52.578     138.412     545.730
  H      -52.500     139.127     546.387
  H      -55.656     139.643     547.350
  H      -54.356     139.829     546.198
  H      -54.003     139.366     547.845

 6  7  8  9  10  11  12  13  14  15  16  26  30  31  32  33  35 0
 6-311+G(2d,p)
 ****
 37  38 0
 6-311+G(2d,p)
 ****
 1  2  3  4  5  17  18  19  20  21  22  23  24  25 0
 3-21G
 ****
 27  28  29  34  36  39  40  41  42  43  44  45  46 0
 3-21G
 ****


