%nproc=1
%NoSave
%Mem=1900MB
#P OB98/GEN NMR

erre ene a

0 1
  C      266.699    -240.623     348.787
  O      266.935    -239.248     348.546
  H      267.505    -241.214     348.343
  H      266.696    -240.792     349.867
  H      265.735    -240.931     348.376
  P      266.688    -238.716     347.058
  C      264.383    -237.580     347.429
  O      265.095    -238.664     346.848
  C      263.242    -237.135     346.515
  O      262.337    -238.259     346.327
  C      262.417    -235.955     347.053
  O      262.078    -235.096     345.957
  C      261.157    -236.618     347.574
  O      260.040    -235.735     347.589
  C      261.007    -237.776     346.600
  N      256.182    -239.204     347.343
  C      256.735    -238.280     346.532
  N      258.042    -238.000     346.351
  C      258.807    -238.836     347.067
  C      258.393    -239.838     347.935
  C      257.004    -240.000     348.071
  N      256.432    -240.894     348.947
  N      259.483    -240.446     348.528
  C      260.539    -239.809     348.046
  N      260.178    -238.825     347.160
  O      267.144    -239.965     346.159
  O      267.425    -237.468     346.682
  H      259.250    -236.237     347.864
  H      268.101    -239.913     345.987
  H      256.034    -237.673     345.958
  H      261.565    -239.993     348.327
  H      260.545    -237.475     345.642
  H      261.327    -236.979     348.593
  H      262.931    -235.372     347.828
  H      263.663    -236.893     345.527
  H      265.071    -236.734     347.574
  H      255.424    -240.865     349.060
  H      257.025    -241.410     349.578
  H      263.989    -237.885     348.405
  P      262.606    -233.580     346.002
  C      265.009    -233.864     345.036
  O      264.201    -233.611     346.179
  O      262.084    -233.058     347.419
  O      262.103    -232.735     344.881
  H      261.880    -232.109     347.372
  H      266.041    -233.852     345.319
  H      264.832    -233.108     344.300
  H      264.762    -234.823     344.630

 6  7  8  9  10  11  12  13  14  15  25  28  32  33  34  35 0
 6-311+G(2d,p)
 ****
 36  39  40 0
 6-311+G(2d,p)
 ****
 1  2  3  4  5  16  17  18  19  20  21  22  23  24 0
 3-21G
 ****
 26  27  29  30  31  37  38  41  42  43  44  45  46  47 0
 3-21G
 ****
 48 0
 3-21G
 ****


