%nproc=1
%NoSave
%Mem=1900MB
#P OB98/GEN NMR

erre ene a

0 1
  C      -68.901     573.408    -260.808
  O      -67.556     573.822    -260.708
  H      -69.253     573.598    -261.824
  H      -69.529     573.972    -260.112
  H      -68.991     572.336    -260.606
  P      -66.752     573.534    -259.353
  C      -66.478     576.073    -259.006
  O      -65.822     574.808    -259.080
  C      -65.458     577.167    -258.699
  O      -64.867     576.953    -257.396
  C      -64.292     577.220    -259.681
  O      -64.691     577.805    -260.901
  C      -63.280     578.020    -258.874
  O      -63.582     579.426    -258.916
  C      -63.516     577.465    -257.447
  N      -62.546     576.436    -257.073
  C      -61.371     576.890    -256.476
  O      -61.132     578.076    -256.269
  N      -60.451     575.919    -256.167
  C      -60.549     574.594    -256.470
  O      -59.614     573.804    -256.379
  C      -61.840     574.165    -257.036
  C      -62.758     575.093    -257.318
  O      -66.058     572.214    -259.283
  O      -67.879     573.659    -258.215
  H      -68.163     572.770    -257.944
  H      -62.876     579.875    -258.408
  H      -59.569     576.240    -255.780
  H      -61.986     573.105    -257.232
  H      -63.709     574.805    -257.763
  H      -63.456     578.271    -256.704
  H      -62.261     577.900    -259.241
  H      -63.894     576.210    -259.846
  H      -65.987     578.129    -258.672
  H      -67.219     576.032    -258.199
  H      -66.986     576.271    -259.956
  P      -64.166     577.237    -262.302
  C      -62.145     578.798    -262.566
  O      -63.414     578.429    -263.078
  O      -65.191     576.516    -263.121
  O      -62.962     576.253    -261.905
  H      -63.114     575.376    -262.311
  H      -61.740     579.594    -263.155
  H      -61.486     577.956    -262.604
  H      -62.250     579.123    -261.552

 6  7  8  9  10  11  12  13  14  15  16  27  31  32  33  34  35 0
 6-311+G(2d,p)
 ****
 36  37 0
 6-311+G(2d,p)
 ****
 1  2  3  4  5  17  18  19  20  21  22  23  24  25 0
 3-21G
 ****
 26  28  29  30  38  39  40  41  42  43  44  45 0
 3-21G
 ****


