%nproc=1
%NoSave
%Mem=1900MB
#P OB98/GEN NMR

erre ene a

0 1
  C     -991.307    1612.629     625.083
  O     -989.908    1612.676     624.801
  P     -989.205    1614.124     624.867
  C     -988.065    1613.950     622.532
  O     -987.894    1614.052     623.928
  C     -986.824    1614.442     621.805
  O     -986.453    1615.729     622.289
  C     -985.592    1613.560     621.973
  O     -985.678    1612.375     621.208
  C     -984.496    1614.531     621.574
  O     -984.427    1614.604     620.121
  C     -985.019    1615.878     622.153
  N     -981.209    1618.345     624.541
  C     -981.514    1618.197     623.239
  N     -982.523    1617.498     622.649
  C     -983.282    1616.946     623.600
  C     -983.116    1616.988     624.991
  C     -982.028    1617.703     625.449
  N     -981.727    1617.890     626.783
  N     -984.091    1616.262     625.626
  C     -984.840    1615.779     624.655
  N     -984.413    1616.181     623.441
  O     -988.592    1614.145     626.355
  O     -990.099    1615.302     624.601
  H     -983.944    1613.805     619.819
  H     -988.616    1615.058     626.719
  H     -980.841    1618.702     622.532
  H     -985.739    1615.167     624.818
  H     -984.822    1616.704     621.468
  H     -983.482    1614.217     621.930
  H     -985.461    1613.292     623.049
  H     -987.072    1614.515     620.707
  H     -988.948    1614.548     622.216
  H     -980.840    1618.312     627.036
  H     -982.243    1617.331     627.443
  H     -988.297    1612.897     622.264
  P     -985.932    1611.000     621.970
  C     -983.460    1610.362     622.167
  O     -984.694    1610.079     621.543
  O     -987.162    1610.384     621.136
  O     -986.152    1611.143     623.450
  H     -986.969    1610.399     620.173
  H     -982.712    1609.648     621.807
  H     -983.546    1610.284     623.253
  H     -983.099    1611.367     621.887
  H     -991.652    1611.619     625.007
  H     -991.833    1613.240     624.380
  H     -991.484    1612.993     626.074

 3  4  5  6  7  8  9  10  11  12  22  25  29  30  31  32 0
 6-311+G(2d,p)
 ****
 33  36  37 0
 6-311+G(2d,p)
 ****
 1  2  13  14  15  16  17  18  19  20  21  23  24  26 0
 3-21G
 ****
 27  28  34  35  38  39  40  41  42  43  44  45  46  47  48 0
 3-21G
 ****


