%nproc=1
%NoSave
%Mem=1900MB
#P OB98/GEN NMR

erre ene a

0 1
  C       51.170    -113.849     -24.514
  O       51.762    -112.587     -24.282
  P       53.026    -112.083     -25.130
  C       54.413    -112.569     -23.017
  O       54.312    -112.736     -24.424
  C       55.834    -112.190     -22.599
  O       56.781    -113.124     -23.197
  C       56.266    -110.772     -23.005
  O       57.138    -110.305     -21.969
  C       57.041    -111.019     -24.286
  O       57.903    -109.938     -24.622
  C       57.738    -112.346     -23.948
  N       58.199    -113.043     -25.147
  C       59.577    -113.069     -25.368
  O       60.340    -112.460     -24.613
  N       60.059    -113.741     -26.465
  C       59.227    -114.247     -27.320
  N       59.761    -114.905     -28.385
  C       57.762    -114.130     -27.191
  C       57.321    -113.534     -26.086
  O       53.107    -110.607     -25.337
  O       52.920    -112.913     -26.496
  H       58.193    -110.052     -25.553
  H       52.227    -112.527     -27.082
  H       57.108    -114.518     -27.959
  H       56.260    -113.403     -25.901
  H       58.604    -112.172     -23.296
  H       56.340    -111.161     -25.120
  H       55.430    -110.085     -23.145
  H       55.910    -112.309     -21.512
  H       60.771    -114.974     -28.427
  H       54.149    -113.518     -22.541
  H       59.204    -115.404     -29.065
  H       53.694    -111.814     -22.677
  P       56.943    -108.863     -21.302
  C       58.765    -108.026     -22.898
  O       57.478    -107.782     -22.359
  O       57.497    -108.722     -19.922
  O       55.356    -108.630     -21.316
  H       55.130    -107.901     -20.707
  H       58.903    -107.406     -23.790
  H       58.883    -109.078     -23.174
  H       59.526    -107.759     -22.160
  H       50.347    -113.985     -23.844
  H       51.895    -114.619     -24.350
  H       50.820    -113.899     -25.524

 3  4  5  6  7  8  9  10  11  12  13  23  27  28  29  30  32 0
 6-311+G(2d,p)
 ****
 34  35 0
 6-311+G(2d,p)
 ****
 1  2  14  15  16  17  18  19  20  21  22  24  25  26 0
 3-21G
 ****
 31  33  36  37  38  39  40  41  42  43  44  45  46 0
 3-21G
 ****


