%nproc=1
%NoSave
%Mem=1900MB
#P OB98/GEN NMR

erre ene a

0 1
  C       76.253    -369.868    -163.288
  O       76.809    -369.755    -164.598
  P       76.430    -370.898    -165.663
  C       78.293    -372.627    -165.045
  O       76.917    -372.284    -165.012
  C       78.490    -374.109    -164.697
  O       79.910    -374.442    -164.765
  C       77.986    -374.505    -163.304
  O       77.438    -375.827    -163.425
  C       79.258    -374.538    -162.474
  O       79.117    -375.343    -161.313
  C       80.259    -375.065    -163.511
  N       81.648    -374.798    -163.142
  C       82.318    -375.797    -162.448
  O       81.774    -376.833    -162.073
  N       83.631    -375.542    -162.153
  C       84.300    -374.377    -162.410
  O       85.478    -374.206    -162.125
  C       83.504    -373.316    -163.049
  C       82.233    -373.571    -163.375
  O       77.485    -370.611    -166.826
  O       74.994    -370.853    -166.078
  H       78.356    -370.327    -166.498
  H       78.771    -376.221    -161.573
  H       84.147    -376.267    -161.677
  H       83.983    -372.359    -163.215
  H       81.616    -372.803    -163.823
  H       80.139    -376.148    -163.639
  H       79.522    -373.523    -162.163
  H       77.226    -373.825    -162.919
  H       77.984    -374.705    -165.461
  H       78.844    -372.021    -164.323
  H       78.699    -372.394    -166.036
  P       75.841    -375.999    -163.321
  C       75.748    -376.397    -160.731
  O       75.418    -375.578    -161.835
  O       75.735    -377.601    -163.283
  O       75.062    -375.395    -164.439
  H       76.359    -378.009    -162.659
  H       75.586    -375.831    -159.810
  H       76.793    -376.712    -160.769
  H       75.095    -377.279    -160.718
  H       76.585    -369.047    -162.687
  H       76.572    -370.787    -162.843
  H       75.185    -369.854    -163.351

 3  4  5  6  7  8  9  10  11  12  13  24  28  29  30  31  32 0
 6-311+G(2d,p)
 ****
 33  34 0
 6-311+G(2d,p)
 ****
 1  2  14  15  16  17  18  19  20  21  22  23  25  26  27 0
 3-21G
 ****
 35  36  37  38  39  40  41  42  43  44  45 0
 3-21G
 ****


