%nproc=1
%NoSave
%Mem=1900MB
#P OB98/GEN NMR

erre ene a

0 1
  C      259.308     213.815     552.505
  O      259.112     212.420     552.616
  P      259.646     211.697     553.947
  C      257.574     210.113     553.960
  O      258.375     211.043     554.676
  C      256.126     210.196     554.449
  O      255.501     211.404     553.958
  C      255.250     209.054     553.959
  O      255.466     207.872     554.722
  C      253.854     209.638     554.127
  O      253.395     209.489     555.478
  C      254.095     211.125     553.796
  N      253.617     211.478     552.459
  C      252.261     211.768     552.351
  O      251.485     211.703     553.310
  N      251.813     212.090     551.095
  C      252.561     212.098     549.959
  O      252.089     212.338     548.854
  C      253.988     211.760     550.124
  C      254.436     211.462     551.347
  O      260.051     212.915     554.906
  O      260.786     210.758     553.729
  H      252.490     209.864     555.512
  H      260.839     212.673     555.433
  H      250.841     212.321     551.007
  H      254.607     211.755     549.239
  H      255.480     211.197     551.491
  H      253.574     211.762     554.522
  H      253.117     209.147     553.483
  H      255.437     208.872     552.893
  H      256.131     210.238     555.549
  H      257.962     209.104     554.122
  H      257.632     210.339     552.889
  P      256.144     206.634     553.959
  C      258.530     206.983     554.967
  O      257.696     207.018     553.831
  O      255.543     206.820     552.488
  O      255.840     205.319     554.596
  H      255.404     207.756     552.261
  H      258.255     206.164     555.646
  H      258.457     207.935     555.504
  H      259.562     206.841     554.643
  H      258.906     214.159     551.575
  H      260.355     214.032     552.543
  H      258.812     214.310     553.313

 3  4  5  6  7  8  9  10  11  12  13  23  28  29  30  31  32 0
 6-311+G(2d,p)
 ****
 33  34 0
 6-311+G(2d,p)
 ****
 1  2  14  15  16  17  18  19  20  21  22  24  25  26 0
 3-21G
 ****
 27  35  36  37  38  39  40  41  42  43  44  45 0
 3-21G
 ****


