%nproc=1
%NoSave
%Mem=1900MB
#P OB98/GEN NMR

erre ene a

0 1
  C     -251.762    -759.403    -895.130
  O     -252.921    -759.971    -895.690
  P     -252.988    -760.161    -897.290
  C     -253.513    -762.131    -898.910
  O     -253.337    -761.708    -897.560
  C     -253.864    -763.607    -898.950
  O     -252.752    -764.422    -898.560
  C     -254.987    -764.002    -897.990
  O     -256.291    -763.712    -898.520
  C     -254.816    -765.523    -897.900
  O     -255.378    -766.157    -899.060
  C     -253.252    -765.638    -897.940
  N     -251.794    -768.954    -894.400
  C     -252.142    -769.171    -895.720
  N     -252.195    -770.438    -896.140
  N     -252.450    -768.215    -896.560
  C     -252.380    -766.970    -896.010
  C     -252.035    -766.649    -894.690
  C     -251.695    -767.690    -893.780
  O     -251.426    -767.598    -892.600
  N     -252.060    -765.267    -894.510
  C     -252.455    -764.783    -895.680
  N     -252.672    -765.776    -896.590
  O     -251.441    -760.057    -897.740
  O     -253.836    -759.165    -898.010
  H     -255.100    -765.628    -899.820
  H     -251.388    -759.874    -898.680
  H     -251.570    -769.720    -893.810
  H     -252.555    -763.728    -895.900
  H     -252.925    -766.499    -898.560
  H     -255.271    -765.958    -897.040
  H     -252.007    -771.236    -895.500
  H     -254.856    -763.573    -896.990
  H     -252.507    -770.649    -897.090
  H     -254.161    -763.882    -900.000
  H     -252.576    -761.965    -899.470
  H     -254.290    -761.534    -899.380
  P     -257.544    -764.289    -897.710
  C     -259.968    -763.400    -897.320
  O     -258.746    -763.215    -897.980
  O     -257.144    -764.015    -896.160
  O     -257.845    -765.710    -897.960
  H     -257.600    -764.647    -895.590
  H     -260.561    -762.472    -897.430
  H     -259.822    -763.610    -896.240
  H     -260.537    -764.212    -897.780
  H     -251.871    -759.345    -894.067
  H     -251.618    -758.420    -895.528
  H     -250.915    -760.012    -895.369

 3  4  5  6  7  8  9  10  11  12  23  26  30  31 0
 6-311+G(2d,p)
 ****
 33  35  36  37  38 0
 6-311+G(2d,p)
 ****
 1  2  13  14  15  16  17  18  19  20  21  22  24  25 0
 3-21G
 ****
 27  28  29  32  34  39  40  41  42  43  44  45  46  47  48  49 0
 3-21G
 ****


