%nproc=1
%NoSave
%Mem=1900MB
#P OB98/GEN NMR

erre ene a

0 1
  C       92.578      26.473     -68.609
  O       92.929      27.610     -67.836
  P       94.438      28.151     -67.793
  C       95.125      27.043     -65.577
  O       95.257      27.029     -66.993
  C       95.992      25.952     -64.956
  O       95.537      24.670     -65.454
  C       97.481      26.008     -65.295
  O       98.240      26.882     -64.474
  C       97.890      24.568     -65.011
  O       98.047      24.380     -63.594
  C       96.681      23.782     -65.520
  N       99.987      21.793     -68.883
  C      100.110      22.113     -67.574
  N       99.187      22.658     -66.751
  C       98.019      22.827     -67.398
  C       97.742      22.543     -68.723
  C       98.794      21.998     -69.484
  N       98.659      21.652     -70.810
  N       96.437      22.873     -69.031
  C       95.937      23.334     -67.903
  N       96.852      23.317     -66.886
  O       94.583      29.544     -67.289
  O       94.962      27.975     -69.294
  H       98.708      25.031     -63.292
  H       95.766      28.512     -69.431
  H      101.080      21.913     -67.128
  H       94.926      23.691     -67.778
  H       96.451      22.910     -64.897
  H       98.843      24.297     -65.477
  H       97.640      26.224     -66.359
  H       95.838      25.965     -63.870
  H       94.073      26.854     -65.328
  H       99.421      21.150     -71.237
  H       97.731      21.653     -71.212
  H       95.396      28.029     -65.192
  P       99.499      27.618     -65.154
  C      101.140      25.706     -64.443
  O      100.551      26.454     -65.485
  O      100.037      28.768     -64.378
  O       98.936      28.024     -66.596
  H       98.740      27.281     -67.189
  H      101.691      24.869     -64.877
  H      100.377      25.308     -63.768
  H      101.836      26.332     -63.878
  H       91.531      26.279     -68.502
  H       93.135      25.625     -68.269
  H       92.803      26.658     -69.638

 3  4  5  6  7  8  9  10  11  12  22  25  29  30  31  32 0
 6-311+G(2d,p)
 ****
 33  36  37 0
 6-311+G(2d,p)
 ****
 1  2  13  14  15  16  17  18  19  20  21  23  24  26 0
 3-21G
 ****
 27  28  34  35  38  39  40  41  42  43  44  45  46  47  48 0
 3-21G
 ****


