%nproc=1
%NoSave
%Mem=1900MB
#P OB98/GEN NMR

erre ene a

0 1
  C      -14.171     -76.547     -93.520
  O      -14.752     -77.347     -92.512
  P      -13.861     -78.056     -91.383
  C      -14.018     -80.253     -92.711
  O      -13.152     -79.302     -92.106
  C      -13.490     -81.677     -92.533
  O      -12.269     -81.845     -93.307
  C      -13.176     -82.067     -91.080
  O      -13.480     -83.462     -90.964
  C      -11.679     -81.840     -90.999
  O      -11.077     -82.529     -89.910
  C      -11.241     -82.295     -92.397
  N       -9.924     -81.775     -92.753
  C       -8.832     -82.615     -92.518
  O       -8.994     -83.703     -91.960
  N       -7.577     -82.183     -92.866
  C       -7.417     -80.976     -93.313
  N       -6.152     -80.606     -93.647
  C       -8.525     -80.015     -93.458
  C       -9.742     -80.480     -93.177
  O      -14.581     -78.390     -90.120
  O      -12.641     -77.041     -91.173
  H      -10.135     -82.259     -89.857
  H      -12.927     -76.268     -90.625
  H       -8.337     -79.002     -93.780
  H      -10.617     -79.849     -93.255
  H      -11.207     -83.390     -92.454
  H      -11.477     -80.768     -90.868
  H      -13.734     -81.487     -90.342
  H      -14.235     -82.368     -92.952
  H       -5.424     -81.301     -93.546
  H      -14.071     -80.031     -93.781
  H       -5.931     -79.720     -94.078
  H      -15.028     -80.157     -92.299
  P      -14.307     -84.033     -89.717
  C      -12.325     -85.015     -88.429
  O      -13.322     -84.011     -88.454
  O      -14.993     -85.338     -89.957
  O      -15.361     -82.875     -89.378
  H      -16.065     -83.234     -88.804
  H      -11.559     -84.739     -87.696
  H      -11.853     -85.126     -89.409
  H      -12.771     -85.967     -88.132
  H      -14.938     -76.173     -94.165
  H      -13.482     -77.135     -94.089
  H      -13.653     -75.726     -93.070

 3  4  5  6  7  8  9  10  11  12  13  23  27  28  29  30  32 0
 6-311+G(2d,p)
 ****
 34  35 0
 6-311+G(2d,p)
 ****
 1  2  14  15  16  17  18  19  20  21  22  24  25  26 0
 3-21G
 ****
 31  33  36  37  38  39  40  41  42  43  44  45  46 0
 3-21G
 ****


