%nproc=1
%NoSave
%Mem=1900MB
#P OB98/GEN NMR

erre ene a

0 1
  C      -46.602       5.279    -305.351
  O      -45.657       5.445    -306.388
  H      -46.138       4.792    -304.490
  H      -46.965       6.263    -305.044
  H      -47.450       4.684    -305.704
  P      -45.002       4.111    -306.994
  C      -43.563       2.181    -306.016
  O      -44.201       3.429    -305.782
  C      -42.308       2.080    -305.157
  O      -42.666       1.919    -303.766
  C      -41.413       0.891    -305.491
  O      -40.582       1.144    -306.611
  C      -40.599       0.787    -304.213
  O      -39.584       1.809    -304.199
  C      -41.660       1.076    -303.142
  N      -41.671      -2.353    -299.346
  C      -40.889      -1.281    -299.589
  N      -40.947      -0.420    -300.626
  C      -41.939      -0.755    -301.466
  C      -42.812      -1.824    -301.352
  C      -42.656      -2.647    -300.224
  N      -43.442      -3.752    -299.979
  N      -43.676      -1.865    -302.431
  C      -43.349      -0.820    -303.162
  N      -42.298      -0.123    -302.625
  O      -43.833       4.661    -307.938
  O      -45.938       3.200    -307.714
  H      -39.121       1.731    -303.344
  H      -43.585       3.982    -308.594
  H      -40.111      -1.090    -298.855
  H      -43.838      -0.526    -304.080
  H      -41.254       1.625    -302.286
  H      -40.091      -0.172    -304.107
  H      -41.997      -0.028    -305.621
  H      -41.753       3.023    -305.252
  H      -43.286       2.113    -307.071
  H      -43.131      -4.373    -299.249
  H      -44.075      -4.060    -300.704
  H      -44.258       1.373    -305.774
  P      -39.492       0.027    -306.987
  C      -37.502      -1.065    -305.715
  O      -38.472      -0.021    -305.751
  O      -38.642       0.725    -308.147
  O      -40.062      -1.286    -307.410
  H      -38.240       0.056    -308.732
  H      -36.900      -0.962    -304.836
  H      -36.879      -1.003    -306.583
  H      -37.998      -2.013    -305.699

 6  7  8  9  10  11  12  13  14  15  25  28  32  33  34  35 0
 6-311+G(2d,p)
 ****
 36  39  40 0
 6-311+G(2d,p)
 ****
 1  2  3  4  5  16  17  18  19  20  21  22  23  24 0
 3-21G
 ****
 26  27  29  30  31  37  38  41  42  43  44  45  46  47 0
 3-21G
 ****
 48 0
 3-21G
 ****


