%nproc=1
%NoSave
%Mem=1900MB
#P OB98/GEN NMR

erre ene a

0 1
  C     -649.685     204.296     409.529
  O     -648.492     203.663     409.115
  H     -650.008     204.983     408.739
  H     -649.509     204.883     410.437
  H     -650.481     203.567     409.701
  P     -647.891     202.497     410.030
  C     -647.237     201.164     407.918
  O     -647.928     201.148     409.163
  C     -648.237     201.057     406.766
  O     -649.092     202.226     406.735
  C     -647.593     200.979     405.389
  O     -647.055     199.699     405.138
  C     -648.758     201.365     404.497
  O     -649.626     200.247     404.271
  C     -649.459     202.451     405.346
  N     -649.124     203.808     404.927
  C     -649.299     204.104     403.574
  O     -649.677     203.272     402.756
  N     -648.990     205.382     403.201
  C     -648.429     206.343     403.998
  O     -648.083     207.450     403.592
  C     -648.247     205.975     405.406
  C     -648.592     204.751     405.806
  O     -648.472     202.379     411.400
  O     -646.316     202.836     410.091
  H     -649.092     199.563     403.826
  H     -646.110     203.216     410.965
  H     -649.091     205.610     402.222
  H     -647.820     206.710     406.079
  H     -648.465     204.446     406.847
  H     -650.549     202.336     405.297
  H     -648.430     201.726     403.525
  H     -646.807     201.741     405.299
  H     -648.873     200.175     406.944
  H     -646.553     200.314     407.885
  H     -646.659     202.096     407.843
  P     -645.473     199.488     405.052
  C     -645.617     196.954     405.466
  O     -645.094     198.196     405.932
  O     -644.650     200.709     405.337
  O     -645.229     198.983     403.553
  H     -644.652     199.613     403.081
  H     -645.305     196.168     406.121
  H     -645.252     196.761     404.479
  H     -646.686     197.001     405.448

 6  7  8  9  10  11  12  13  14  15  16  26  31  32  33  34  35 0
 6-311+G(2d,p)
 ****
 36  37 0
 6-311+G(2d,p)
 ****
 1  2  3  4  5  17  18  19  20  21  22  23  24  25 0
 3-21G
 ****
 27  28  29  30  38  39  40  41  42  43  44  45 0
 3-21G
 ****


