%nproc=1
%NoSave
%Mem=1900MB
#P OB98/GEN NMR

erre ene a

0 1
  C     1030.621    -552.738     296.930
  O     1029.698    -553.675     296.410
  H     1030.814    -551.978     296.167
  H     1031.559    -553.247     297.167
  H     1030.221    -552.250     297.819
  P     1029.017    -554.732     297.404
  C     1027.360    -554.613     299.381
  O     1028.063    -553.880     298.375
  C     1026.431    -553.689     300.179
  O     1027.244    -552.647     300.806
  C     1025.360    -552.987     299.337
  O     1024.221    -552.786     300.174
  C     1026.025    -551.664     299.027
  O     1025.091    -550.684     298.600
  C     1026.728    -551.375     300.357
  N     1027.785    -550.364     300.231
  C     1027.380    -549.041     300.263
  O     1026.200    -548.696     300.344
  N     1028.369    -548.116     300.135
  C     1029.697    -548.369     299.929
  O     1030.539    -547.487     299.788
  C     1030.073    -549.802     299.868
  C     1029.107    -550.718     300.022
  O     1029.953    -555.660     298.102
  O     1027.963    -555.523     296.489
  H     1025.361    -549.800     298.915
  H     1027.858    -556.435     296.816
  H     1028.103    -547.128     300.160
  H     1031.107    -550.051     299.697
  H     1029.350    -551.777     299.982
  H     1026.018    -551.024     301.109
  H     1026.766    -551.775     298.226
  H     1025.081    -553.541     298.440
  H     1025.981    -554.271     300.995
  H     1028.088    -555.076     300.038
  H     1026.765    -555.410     298.899
  P     1023.057    -553.889     300.325
  C     1023.305    -556.291     301.233
  O     1023.461    -554.904     301.510
  O     1022.693    -554.564     299.046
  O     1021.809    -553.092     300.926
  H     1020.976    -553.525     300.647
  H     1023.603    -556.861     302.088
  H     1023.915    -556.558     300.396
  H     1022.280    -556.496     301.007

 6  7  8  9  10  11  12  13  14  15  16  26  31  32  33  34  35 0
 6-311+G(2d,p)
 ****
 36  37 0
 6-311+G(2d,p)
 ****
 1  2  3  4  5  17  18  19  20  21  22  23  24  25 0
 3-21G
 ****
 27  28  29  30  38  39  40  41  42  43  44  45 0
 3-21G
 ****


