%nproc=1
%NoSave
%Mem=1900MB
#P OB98/GEN NMR

erre ene a

0 1
  C      104.576    -648.088     216.285
  O      105.955    -648.204     216.656
  P      106.976    -649.216     215.944
  C      108.920    -647.518     215.836
  O      108.481    -648.792     216.299
  C      109.621    -646.728     216.947
  O      108.722    -646.468     218.035
  C      110.824    -647.433     217.574
  O      111.953    -647.380     216.709
  C      110.975    -646.653     218.873
  O      111.702    -645.430     218.663
  C      109.506    -646.363     219.242
  N      109.008    -647.262     220.287
  C      109.611    -647.144     221.542
  O      110.549    -646.361     221.723
  N      109.142    -647.939     222.575
  C      108.223    -648.819     222.340
  N      107.800    -649.573     223.389
  C      107.625    -649.039     221.004
  C      108.066    -648.222     220.034
  O      106.725    -649.396     214.477
  O      106.786    -650.612     216.715
  H      111.244    -644.955     217.948
  H      106.955    -651.344     216.094
  H      106.876    -649.795     220.838
  H      107.671    -648.312     219.034
  H      109.396    -645.327     219.590
  H      111.517    -647.218     219.641
  H      110.561    -648.477     217.793
  H      109.926    -645.761     216.522
  H      108.229    -649.401     224.289
  H      108.038    -646.956     215.498
  H      107.089    -650.281     223.315
  H      109.590    -647.659     214.984
  P      112.991    -648.603     216.675
  C      112.753    -649.902     214.475
  O      113.414    -648.840     215.158
  O      112.561    -649.830     217.421
  O      114.318    -647.973     217.323
  H      114.804    -648.681     217.788
  H      112.816    -649.712     213.399
  H      111.701    -649.957     214.771
  H      113.254    -650.839     214.698
  H      104.102    -647.352     216.900
  H      104.090    -649.032     216.420
  H      104.506    -647.794     215.258

 3  4  5  6  7  8  9  10  11  12  13  23  27  28  29  30  32 0
 6-311+G(2d,p)
 ****
 34  35 0
 6-311+G(2d,p)
 ****
 1  2  14  15  16  17  18  19  20  21  22  24  25  26 0
 3-21G
 ****
 31  33  36  37  38  39  40  41  42  43  44  45  46 0
 3-21G
 ****


