%nproc=1
%NoSave
%Mem=1900MB
#P OB98/GEN NMR

erre ene a

0 1
  C      100.593     425.541    -271.562
  O       99.491     425.945    -272.350
  P       99.385     427.381    -273.040
  C       97.751     426.623    -274.916
  O       97.967     427.472    -273.795
  C       96.264     426.382    -275.209
  O       95.596     427.653    -275.364
  C       96.103     425.642    -276.538
  O       96.223     424.233    -276.587
  C       94.821     426.198    -277.145
  O       93.693     425.353    -276.919
  C       94.641     427.538    -276.433
  N       93.135     429.790    -280.716
  C       92.540     428.755    -280.024
  N       91.527     428.124    -280.660
  N       92.922     428.364    -278.835
  C       94.009     429.029    -278.376
  C       94.672     430.078    -278.962
  C       94.214     430.527    -280.255
  O       94.765     431.387    -280.939
  N       95.775     430.456    -278.238
  C       95.804     429.605    -277.231
  N       94.775     428.696    -277.293
  O      100.605     427.878    -273.745
  O       99.150     428.332    -271.758
  H       92.972     425.649    -277.501
  H       99.592     429.183    -271.940
  H       92.846     429.994    -281.665
  H       96.562     429.586    -276.458
  H       93.648     427.600    -275.970
  H       94.919     426.291    -278.235
  H       91.304     428.301    -281.627
  H       96.902     425.996    -277.198
  H       91.185     427.258    -280.259
  H       95.774     425.889    -274.364
  H       98.265     425.677    -274.713
  H       98.224     427.060    -275.797
  P       96.996     423.388    -277.701
  C       97.108     421.494    -275.984
  O       96.860     421.833    -277.337
  O       98.544     423.684    -277.422
  O       96.649     423.734    -279.113
  H       99.064     423.513    -278.228
  H       97.287     420.416    -275.914
  H       96.230     421.745    -275.379
  H       97.981     422.027    -275.597
  H      100.434     424.543    -271.211
  H      100.695     426.201    -270.726
  H      101.485     425.574    -272.152

 3  4  5  6  7  8  9  10  11  12  23  26  30  31 0
 6-311+G(2d,p)
 ****
 33  35  36  37  38 0
 6-311+G(2d,p)
 ****
 1  2  13  14  15  16  17  18  19  20  21  22  24  25 0
 3-21G
 ****
 27  28  29  32  34  39  40  41  42  43  44  45  46  47  48  49 0
 3-21G
 ****


