%nproc=1
%NoSave
%Mem=1900MB
#P OB98/GEN NMR

erre ene a

0 1
  C      494.312     388.238    -956.746
  O      495.616     387.965    -957.248
  P      495.926     386.468    -957.739
  C      497.688     385.418    -959.344
  O      497.013     386.599    -958.909
  C      498.629     385.731    -960.498
  O      497.871     385.920    -961.725
  C      499.440     387.018    -960.335
  O      500.597     386.824    -959.521
  C      499.849     387.292    -961.774
  O      500.955     386.462    -962.144
  C      498.570     386.867    -962.540
  N      497.881     390.934    -965.582
  C      498.908     390.052    -965.482
  N      499.036     389.022    -964.627
  C      497.955     388.928    -963.803
  C      496.856     389.779    -963.800
  C      496.839     390.821    -964.743
  N      495.768     391.692    -964.871
  N      495.942     389.385    -962.821
  C      496.496     388.307    -962.267
  N      497.707     387.986    -962.852
  O      494.584     386.045    -958.510
  O      496.262     385.506    -956.639
  H      501.679     386.624    -961.499
  H      494.503     385.082    -958.537
  H      499.742     390.224    -966.149
  H      496.064     387.721    -961.468
  H      498.824     386.377    -963.496
  H      500.159     388.328    -961.929
  H      498.803     387.839    -959.961
  H      499.294     384.868    -960.628
  H      496.953     384.679    -959.662
  H      495.750     392.283    -965.682
  H      494.918     391.483    -964.392
  H      498.242     385.012    -958.486
  P      501.595     388.057    -959.377
  C      503.162     388.778    -957.428
  O      501.972     388.139    -957.825
  O      500.664     389.330    -959.615
  O      502.761     388.018    -960.354
  H      501.187     390.106    -959.955
  H      503.114     389.025    -956.376
  H      503.308     389.727    -957.993
  H      504.031     388.128    -957.616
  H      494.249     389.267    -956.458
  H      494.120     387.617    -955.896
  H      493.587     388.035    -957.507

 3  4  5  6  7  8  9  10  11  12  22  25  29  30  31  32 0
 6-311+G(2d,p)
 ****
 33  36  37 0
 6-311+G(2d,p)
 ****
 1  2  13  14  15  16  17  18  19  20  21  23  24  26 0
 3-21G
 ****
 27  28  34  35  38  39  40  41  42  43  44  45  46  47  48 0
 3-21G
 ****


