%nproc=1
%NoSave
%Mem=1900MB
#P OB98/GEN NMR

erre ene a

0 1
  C     -887.980     961.434    -897.600
  O     -888.100     960.029    -897.340
  P     -889.360     959.271    -898.000
  C     -891.930     959.691    -898.060
  O     -890.680     960.009    -897.480
  C     -892.860     959.074    -897.010
  O     -893.310     960.111    -896.060
  C     -894.170     958.517    -897.580
  O     -893.960     957.265    -898.220
  C     -895.030     958.480    -896.320
  O     -894.670     957.329    -895.530
  C     -894.600     959.760    -895.600
  N     -899.020     961.946    -894.180
  C     -898.440     960.808    -893.770
  N     -897.240     960.297    -894.220
  C     -896.700     961.058    -895.170
  C     -897.210     962.243    -895.710
  C     -898.420     962.683    -895.170
  N     -899.070     963.866    -895.580
  N     -896.390     962.759    -896.700
  C     -895.400     961.924    -896.730
  N     -895.510     960.899    -895.830
  O     -889.370     957.862    -897.190
  O     -889.250     959.094    -899.490
  H     -894.770     956.548    -896.120
  H     -889.680     957.158    -897.810
  H     -898.910     960.245    -892.980
  H     -894.550     961.993    -897.440
  H     -894.530     959.623    -894.490
  H     -896.110     958.425    -896.540
  H     -894.630     959.221    -898.330
  H     -892.320     958.295    -896.450
  H     -891.770     958.949    -898.860
  H     -900.000     964.010    -895.220
  H     -898.700     964.301    -896.400
  H     -892.370     960.578    -898.540
  P     -895.210     956.571    -898.910
  C     -897.450     955.674    -897.990
  O     -896.160     956.173    -897.670
  O     -894.590     955.154    -899.350
  O     -895.850     957.343    -900.000
  H     -894.120     954.733    -898.600
  H     -897.970     955.398    -897.080
  H     -897.330     954.767    -898.630
  H     -898.060     956.433    -898.530
  H     -887.109     961.814    -897.109
  H     -888.847     961.940    -897.231
  H     -887.894     961.596    -898.654

 3  4  5  6  7  8  9  10  11  12  22  25  29  30  31  32 0
 6-311+G(2d,p)
 ****
 33  36  37 0
 6-311+G(2d,p)
 ****
 1  2  13  14  15  16  17  18  19  20  21  23  24  26 0
 3-21G
 ****
 27  28  34  35  38  39  40  41  42  43  44  45  46  47  48 0
 3-21G
 ****


