%nproc=1
%NoSave
%Mem=1900MB
#P OB98/GEN NMR

erre ene a

0 1
  C      244.399    -309.202    -192.051
  O      245.150    -310.076    -191.230
  H      243.335    -309.385    -191.881
  H      244.626    -309.391    -193.105
  H      244.625    -308.159    -191.802
  P      246.747    -309.971    -191.329
  C      246.830    -307.675    -190.115
  O      247.218    -309.043    -190.096
  C      246.654    -307.156    -188.684
  O      245.942    -308.158    -187.902
  C      247.979    -306.857    -187.959
  O      247.806    -305.684    -187.149
  C      248.157    -308.065    -187.056
  O      249.002    -307.780    -185.943
  C      246.707    -308.363    -186.692
  N      247.942    -311.453    -182.908
  C      248.234    -310.119    -183.110
  N      248.969    -309.501    -182.152
  N      247.842    -309.439    -184.153
  C      247.084    -310.166    -185.017
  C      246.740    -311.496    -184.942
  C      247.200    -312.243    -183.790
  O      246.993    -313.434    -183.569
  N      245.992    -311.876    -186.037
  C      245.896    -310.778    -186.767
  N      246.533    -309.714    -186.187
  O      246.982    -309.027    -192.605
  O      247.471    -311.272    -191.448
  H      248.904    -308.511    -185.298
  H      247.819    -309.249    -193.053
  H      248.281    -311.934    -182.096
  H      245.378    -310.702    -187.713
  H      246.321    -307.682    -185.922
  H      248.597    -308.896    -187.621
  H      249.280    -309.953    -181.306
  H      248.827    -306.712    -188.635
  H      249.181    -308.516    -182.274
  H      246.012    -306.271    -188.714
  H      245.882    -307.579    -190.652
  H      247.599    -307.093    -190.630
  P      248.916    -304.530    -187.262
  C      248.322    -303.684    -189.649
  O      248.371    -303.390    -188.254
  O      250.079    -305.244    -188.118
  O      249.425    -304.050    -185.942
  H      250.845    -305.426    -187.531
  H      247.941    -302.836    -190.179
  H      247.682    -304.525    -189.814
  H      249.307    -303.911    -190.001

 6  7  8  9  10  11  12  13  14  15  26  29  33  34 0
 6-311+G(2d,p)
 ****
 36  38  39  40  41 0
 6-311+G(2d,p)
 ****
 1  2  3  4  5  16  17  18  19  20  21  22  23  24  25 0
 3-21G
 ****
 27  28  30  31  32  35  37  42  43  44  45  46  47 0
 3-21G
 ****
 48  49 0
 3-21G
 ****


