%nproc=1
%NoSave
%Mem=1900MB
#P OB98/GEN NMR

erre ene a

0 1
  C      -46.113    -101.093    -203.820
  O      -45.002    -100.649    -203.070
  H      -46.707    -101.770    -203.200
  H      -45.783    -101.627    -204.713
  H      -46.737    -100.242    -204.105
  P      -43.970     -99.677    -203.825
  C      -42.208    -101.482    -203.289
  O      -42.532    -100.096    -203.242
  C      -41.738    -101.966    -201.915
  O      -40.473    -101.326    -201.605
  C      -42.716    -101.634    -200.780
  O      -42.705    -102.698    -199.829
  C      -42.103    -100.391    -200.152
  O      -42.521    -100.206    -198.805
  C      -40.614    -100.676    -200.331
  N      -36.750     -98.354    -197.958
  C      -37.202     -99.620    -197.919
  N      -38.230    -100.166    -198.604
  C      -38.772     -99.260    -199.441
  C      -38.418     -97.930    -199.592
  C      -37.360     -97.471    -198.791
  N      -36.911     -96.172    -198.800
  N      -39.245     -97.320    -200.517
  C      -40.074     -98.260    -200.923
  N      -39.833     -99.451    -200.283
  O      -44.284     -98.223    -203.755
  O      -43.943    -100.306    -205.296
  H      -43.441     -99.863    -198.808
  H      -43.849    -101.279    -205.270
  H      -36.672    -100.288    -197.234
  H      -40.858     -98.140    -201.660
  H      -40.210    -101.344    -199.550
  H      -42.398     -99.507    -200.718
  H      -43.734    -101.458    -201.129
  H      -41.544    -103.046    -201.969
  H      -41.417    -101.657    -204.029
  H      -36.145     -95.924    -198.192
  H      -37.347     -95.499    -199.416
  H      -43.104    -102.026    -203.601
  P      -43.725    -103.916    -200.007
  C      -44.835    -103.636    -197.697
  O      -44.100    -104.499    -198.563
  O      -43.333    -104.947    -201.017
  O      -45.084    -103.180    -200.445
  H      -45.516    -103.689    -201.159
  H      -45.023    -104.136    -196.770
  H      -45.766    -103.377    -198.157
  H      -44.268    -102.747    -197.514

 6  7  8  9  10  11  12  13  14  15  25  28  32  33  34  35 0
 6-311+G(2d,p)
 ****
 36  39  40 0
 6-311+G(2d,p)
 ****
 1  2  3  4  5  16  17  18  19  20  21  22  23  24 0
 3-21G
 ****
 26  27  29  30  31  37  38  41  42  43  44  45  46  47 0
 3-21G
 ****
 48 0
 3-21G
 ****


