%nproc=1
%NoSave
%Mem=1900MB
#P OB98/GEN NMR

erre ene a

0 1
  C      312.857     389.030      62.953
  O      312.231     389.922      62.054
  H      313.820     388.726      62.531
  H      312.238     388.139      63.082
  H      313.033     389.505      63.922
  P      310.944     390.740      62.540
  C      309.407     388.718      62.067
  O      309.882     389.642      63.037
  C      308.339     387.809      62.681
  O      309.006     386.854      63.561
  C      307.296     388.573      63.525
  O      306.030     387.912      63.397
  C      307.842     388.379      64.927
  O      306.860     388.593      65.910
  C      308.363     386.945      64.845
  N      309.265     386.637      65.947
  C      308.690     386.138      67.110
  O      307.479     385.960      67.252
  N      309.545     385.915      68.155
  C      310.871     386.238      68.184
  O      311.575     386.091      69.177
  C      311.414     386.815      66.940
  C      310.600     386.976      65.897
  O      310.397     391.739      61.572
  O      311.398     391.413      63.920
  H      306.169     387.907      65.848
  H      310.827     392.177      64.130
  H      309.144     385.543      69.006
  H      312.461     387.097      66.938
  H      310.963     387.414      64.973
  H      307.530     386.227      64.850
  H      308.660     389.081      65.116
  H      307.201     389.623      63.246
  H      307.852     387.235      61.886
  H      310.250     388.116      61.721
  H      308.987     389.270      61.213
  P      305.009     388.267      62.206
  C      304.459     390.426      63.484
  O      304.669     389.841      62.205
  O      303.804     387.383      62.156
  O      305.878     388.079      60.874
  H      305.356     387.574      60.220
  H      304.242     391.467      63.369
  H      305.341     390.310      64.079
  H      303.636     389.941      63.967

 6  7  8  9  10  11  12  13  14  15  16  26  31  32  33  34  35 0
 6-311+G(2d,p)
 ****
 36  37 0
 6-311+G(2d,p)
 ****
 1  2  3  4  5  17  18  19  20  21  22  23  24  25 0
 3-21G
 ****
 27  28  29  30  38  39  40  41  42  43  44  45 0
 3-21G
 ****


