%nproc=1
%NoSave
%Mem=1900MB
#P OB98/GEN NMR

erre ene a

0 1
  C      451.451    -799.042     337.919
  O      451.420    -799.769     339.134
  H      452.273    -798.322     337.965
  H      450.517    -798.492     337.781
  H      451.621    -799.710     337.072
  P      450.398    -801.001     339.264
  C      452.003    -802.797     338.345
  O      450.799    -802.064     338.139
  C      451.666    -804.228     338.746
  O      450.969    -804.898     337.668
  C      452.900    -805.092     339.031
  O      453.445    -804.789     340.301
  C      452.299    -806.487     338.907
  O      451.616    -806.862     340.115
  C      451.310    -806.312     337.738
  N      451.841    -806.783     336.469
  C      451.240    -807.917     335.931
  O      450.333    -808.545     336.487
  N      451.753    -808.347     334.727
  C      452.840    -807.821     334.086
  O      453.301    -808.301     333.054
  C      453.445    -806.649     334.707
  C      452.934    -806.182     335.844
  O      448.948    -800.636     339.308
  O      450.861    -801.717     340.627
  H      450.897    -806.211     340.241
  H      450.225    -801.517     341.332
  H      451.339    -809.184     334.331
  H      454.302    -806.199     334.219
  H      453.366    -805.312     336.328
  H      450.381    -806.844     337.949
  H      453.064    -807.241     338.726
  H      453.643    -804.949     338.246
  H      450.990    -804.196     339.619
  H      452.572    -802.318     339.144
  H      452.594    -802.775     337.413
  P      455.037    -804.707     340.487
  C      455.150    -802.150     340.173
  O      455.555    -803.420     339.666
  O      455.782    -805.969     340.210
  O      455.228    -804.256     342.009
  H      455.727    -804.943     342.496
  H      455.549    -801.375     339.553
  H      455.515    -802.032     341.172
  H      454.082    -802.091     340.175

 6  7  8  9  10  11  12  13  14  15  16  26  31  32  33  34  35 0
 6-311+G(2d,p)
 ****
 36  37 0
 6-311+G(2d,p)
 ****
 1  2  3  4  5  17  18  19  20  21  22  23  24  25 0
 3-21G
 ****
 27  28  29  30  38  39  40  41  42  43  44  45 0
 3-21G
 ****


