%nproc=1
%NoSave
%Mem=1900MB
#P OB98/GEN NMR

erre ene a

0 1
  C     -102.480     638.914     284.314
  O     -103.246     638.967     283.103
  P     -103.566     640.374     282.397
  C     -105.993     640.801     283.075
  O     -104.631     641.177     283.286
  C     -106.915     641.995     282.782
  O     -106.528     642.684     281.566
  C     -108.401     641.645     282.645
  O     -109.117     642.769     283.165
  C     -108.572     641.539     281.138
  O     -109.941     641.639     280.733
  C     -107.657     642.676     280.668
  N     -107.243     642.493     279.277
  C     -108.223     642.693     278.289
  O     -109.390     642.925     278.615
  N     -107.873     642.558     276.973
  C     -106.674     642.170     276.670
  N     -106.399     642.021     275.342
  C     -105.629     641.875     277.659
  C     -105.978     642.074     278.926
  O     -103.908     640.279     280.947
  O     -102.210     641.219     282.604
  H     -109.976     641.555     279.756
  H     -102.104     641.843     281.857
  H     -104.648     641.531     277.370
  H     -105.280     641.892     279.749
  H     -108.159     643.652     280.762
  H     -108.192     640.565     280.787
  H     -108.693     640.724     283.165
  H     -106.777     642.718     283.601
  H     -107.146     642.210     274.680
  H     -106.357     640.279     283.968
  H     -105.537     641.625     274.992
  H     -106.036     640.089     282.243
  P     -110.211     642.630     284.330
  C     -112.160     642.208     282.695
  O     -111.380     641.686     283.752
  O     -110.691     643.912     284.905
  O     -109.500     641.719     285.448
  H     -109.989     641.823     286.287
  H     -112.757     641.419     282.257
  H     -111.509     642.644     281.905
  H     -112.804     642.996     283.076
  H     -102.375     637.896     284.626
  H     -102.981     639.471     285.078
  H     -101.512     639.336     284.142

 3  4  5  6  7  8  9  10  11  12  13  23  27  28  29  30  32 0
 6-311+G(2d,p)
 ****
 34  35 0
 6-311+G(2d,p)
 ****
 1  2  14  15  16  17  18  19  20  21  22  24  25  26 0
 3-21G
 ****
 31  33  36  37  38  39  40  41  42  43  44  45  46 0
 3-21G
 ****


