%nproc=1
%NoSave
%Mem=1900MB
#P OB98/GEN NMR

erre ene a

0 1
  C      -20.881       4.904      53.695
  O      -22.188       4.562      53.261
  P      -23.487       5.153      53.999
  C      -24.512       4.802      56.345
  O      -23.597       4.325      55.367
  C      -25.155       3.623      57.071
  O      -25.964       2.870      56.147
  C      -24.164       2.629      57.662
  O      -23.583       3.132      58.855
  C      -25.053       1.402      57.832
  O      -25.854       1.526      59.017
  C      -25.953       1.489      56.581
  N      -25.518       0.603      55.507
  C      -25.825      -0.753      55.653
  O      -26.440      -1.162      56.636
  N      -25.457      -1.621      54.655
  C      -24.818      -1.182      53.615
  N      -24.539      -2.076      52.628
  C      -24.426       0.229      53.449
  C      -24.808       1.058      54.418
  O      -24.727       5.159      53.172
  O      -23.039       6.599      54.504
  H      -26.434       0.740      59.048
  H      -23.187       7.313      53.838
  H      -23.881       0.546      52.570
  H      -24.576       2.113      54.361
  H      -26.989       1.244      56.842
  H      -24.494       0.464      57.901
  H      -23.367       2.409      56.941
  H      -25.811       4.022      57.857
  H      -24.978      -2.987      52.704
  H      -25.292       5.381      55.840
  H      -24.313      -1.772      51.689
  H      -23.983       5.456      57.045
  P      -22.105       2.636      59.227
  C      -21.202       0.358      60.075
  O      -22.294       1.259      60.030
  O      -21.634       3.686      60.337
  O      -21.165       2.577      58.069
  H      -21.038       4.351      59.945
  H      -21.407      -0.396      60.840
  H      -20.278       0.881      60.334
  H      -21.093      -0.142      59.110
  H      -20.160       4.411      53.078
  H      -20.751       4.596      54.711
  H      -20.747       5.963      53.623

 3  4  5  6  7  8  9  10  11  12  13  23  27  28  29  30  32 0
 6-311+G(2d,p)
 ****
 34  35 0
 6-311+G(2d,p)
 ****
 1  2  14  15  16  17  18  19  20  21  22  24  25  26 0
 3-21G
 ****
 31  33  36  37  38  39  40  41  42  43  44  45  46 0
 3-21G
 ****


