%nproc=1
%NoSave
%Mem=1900MB
#P OB98/GEN NMR

erre ene a

0 1
  C     -366.034     411.284     -78.041
  O     -367.424     410.951     -78.143
  P     -367.920     410.363     -79.554
  C     -369.819     411.999     -80.258
  O     -368.469     411.588     -80.438
  C     -370.130     413.195     -81.155
  O     -369.470     414.400     -80.688
  C     -369.661     413.009     -82.593
  O     -370.517     412.124     -83.295
  C     -369.688     414.455     -83.093
  O     -371.031     414.851     -83.428
  C     -369.206     415.229     -81.850
  N     -365.834     419.062     -81.573
  C     -367.183     419.039     -81.498
  N     -368.008     417.978     -81.585
  C     -367.309     416.840     -81.754
  C     -365.932     416.710     -81.847
  C     -365.177     417.889     -81.757
  N     -363.799     417.916     -81.850
  N     -365.581     415.392     -82.021
  C     -366.722     414.740     -82.065
  N     -367.801     415.567     -81.890
  O     -369.244     409.550     -79.164
  O     -366.914     409.496     -80.230
  H     -371.580     414.734     -82.624
  H     -369.077     408.589     -79.235
  H     -367.666     420.004     -81.355
  H     -366.829     413.665     -82.211
  H     -369.766     416.164     -81.706
  H     -369.071     414.605     -83.982
  H     -368.633     412.623     -82.611
  H     -371.215     413.367     -81.130
  H     -369.993     412.266     -79.208
  H     -363.346     418.816     -81.851
  H     -363.310     417.060     -82.073
  H     -370.477     411.155     -80.478
  P     -370.117     410.574     -83.335
  C     -369.690     410.413     -85.863
  O     -369.100     410.464     -84.576
  O     -371.450     409.913     -83.909
  O     -369.618     410.017     -82.042
  H     -371.799     410.406     -84.681
  H     -368.893     410.378     -86.615
  H     -370.312     411.305     -86.041
  H     -370.304     409.515     -85.958
  H     -365.829     411.662     -77.061
  H     -365.791     412.029     -78.769
  H     -365.444     410.409     -78.216

 3  4  5  6  7  8  9  10  11  12  22  25  29  30  31  32 0
 6-311+G(2d,p)
 ****
 33  36  37 0
 6-311+G(2d,p)
 ****
 1  2  13  14  15  16  17  18  19  20  21  23  24  26 0
 3-21G
 ****
 27  28  34  35  38  39  40  41  42  43  44  45  46  47  48 0
 3-21G
 ****


