%nproc=1
%NoSave
%Mem=1900MB
#P OB98/GEN NMR

erre ene a

0 1
  C       -8.898     -95.863       2.355
  O      -10.133     -96.181       2.963
  P      -10.273     -96.272       4.554
  C       -9.294     -97.698       6.443
  O       -9.144     -97.272       5.097
  C       -8.041     -98.417       6.942
  O       -6.902     -97.522       6.844
  C       -8.133     -98.903       8.395
  O       -7.468    -100.169       8.461
  C       -7.354     -97.850       9.158
  O       -6.882     -98.327      10.410
  C       -6.265     -97.505       8.136
  N       -5.639     -96.219       8.403
  C       -4.781     -96.149       9.503
  O       -4.683     -97.106      10.272
  N       -4.072     -94.992       9.707
  C       -4.342     -93.943       8.993
  N       -3.570     -92.839       9.182
  C       -5.422     -93.913       7.988
  C       -5.995     -95.082       7.715
  O      -11.650     -96.565       5.052
  O       -9.770     -94.844       5.076
  H      -10.454     -94.458       5.657
  H       -6.324     -99.118      10.258
  H       -5.694     -92.984       7.509
  H       -6.779     -95.170       6.973
  H       -5.489     -98.280       8.125
  H       -7.994     -96.981       9.344
  H       -9.165     -99.018       8.739
  H       -7.846     -99.265       6.274
  H       -2.813     -92.910       9.851
  H      -10.140     -98.386       6.490
  H       -3.490     -92.107       8.478
  H       -9.526     -96.839       7.083
  P       -8.053    -101.286       9.456
  C       -8.585    -101.403      11.992
  O       -7.894    -100.742      10.955
  O       -6.907    -102.411       9.386
  O       -9.371    -101.882       9.088
  H       -7.299    -103.275       9.609
  H       -8.415    -100.859      12.926
  H       -8.210    -102.422      12.110
  H       -9.658    -101.423      11.790
  H       -9.016     -95.853       1.292
  H       -8.168     -96.597       2.626
  H       -8.575     -94.899       2.687

 3  4  5  6  7  8  9  10  11  12  13  24  27  28  29  30  32 0
 6-311+G(2d,p)
 ****
 34  35 0
 6-311+G(2d,p)
 ****
 1  2  14  15  16  17  18  19  20  21  22  23  25  26 0
 3-21G
 ****
 31  33  36  37  38  39  40  41  42  43  44  45  46 0
 3-21G
 ****


