%nproc=1
%NoSave
%Mem=1900MB
#P OB98/GEN NMR

erre ene a

0 1
  C      369.911    -217.057      47.792
  O      370.494    -215.879      48.322
  H      370.458    -217.342      46.889
  H      368.864    -216.881      47.538
  H      369.991    -217.872      48.523
  P      369.814    -215.273      49.642
  C      371.833    -215.347      51.244
  O      371.022    -214.533      50.407
  C      373.039    -214.548      51.764
  O      373.943    -214.310      50.653
  C      372.646    -213.189      52.356
  O      373.471    -212.928      53.500
  C      372.984    -212.205      51.247
  O      373.250    -210.895      51.744
  C      374.179    -212.887      50.581
  N      376.655    -209.703      47.448
  C      376.808    -209.976      48.764
  N      376.113    -210.856      49.513
  C      375.212    -211.512      48.768
  C      374.931    -211.335      47.421
  C      375.699    -210.363      46.754
  N      375.530    -210.054      45.424
  N      373.899    -212.168      47.023
  C      373.563    -212.848      48.110
  N      374.322    -212.475      49.192
  O      369.028    -216.230      50.467
  O      368.985    -214.042      49.038
  H      374.035    -210.947      52.325
  H      369.504    -213.540      48.387
  H      377.590    -209.421      49.275
  H      372.779    -213.600      48.168
  H      375.125    -212.661      51.090
  H      372.139    -212.137      50.547
  H      371.591    -213.141      52.643
  H      373.580    -215.163      52.493
  H      372.190    -216.219      50.684
  H      376.140    -209.357      45.012
  H      374.845    -210.559      44.879
  H      371.220    -215.694      52.080
  P      372.809    -212.209      54.772
  C      373.587    -214.050      56.412
  O      373.613    -212.658      56.084
  O      371.314    -212.294      54.867
  O      373.280    -210.682      54.596
  H      372.550    -210.092      54.874
  H      374.157    -214.217      57.302
  H      374.009    -214.614      55.607
  H      372.575    -214.360      56.572

 6  7  8  9  10  11  12  13  14  15  25  28  32  33  34  35 0
 6-311+G(2d,p)
 ****
 36  39  40 0
 6-311+G(2d,p)
 ****
 1  2  3  4  5  16  17  18  19  20  21  22  23  24 0
 3-21G
 ****
 26  27  29  30  31  37  38  41  42  43  44  45  46  47 0
 3-21G
 ****
 48 0
 3-21G
 ****


