%nproc=1
%NoSave
%Mem=1900MB
#P OB98/GEN NMR

erre ene a

0 1
  C     -107.166     260.057     585.583
  O     -106.546     259.517     586.729
  H     -107.795     260.898     585.889
  H     -107.798     259.299     585.100
  H     -106.417     260.420     584.873
  P     -105.555     258.270     586.489
  C     -105.326     256.445     584.655
  O     -106.139     257.458     585.237
  C     -106.202     255.432     583.922
  O     -106.966     256.100     582.892
  C     -105.431     254.342     583.214
  O     -104.979     253.331     584.100
  C     -106.465     253.843     582.212
  O     -107.359     252.896     582.803
  C     -107.216     255.137     581.837
  N     -105.738     253.899     577.105
  C     -106.189     253.131     578.141
  N     -106.577     253.555     579.370
  C     -106.484     254.890     579.470
  C     -106.038     255.785     578.510
  C     -105.658     255.229     577.273
  N     -105.167     255.993     576.225
  N     -106.045     257.072     578.990
  C     -106.490     256.970     580.237
  N     -106.780     255.674     580.559
  O     -105.862     257.322     587.740
  O     -104.106     258.626     586.407
  H     -107.950     252.588     582.084
  H     -105.166     257.445     588.425
  H     -106.256     252.070     577.953
  H     -106.618     257.795     580.925
  H     -108.301     254.985     581.785
  H     -105.983     253.359     581.364
  H     -104.589     254.773     582.661
  H     -106.918     255.000     584.638
  H     -104.764     255.933     585.443
  H     -104.628     256.911     583.956
  H     -104.845     255.524     575.402
  H     -105.001     256.972     576.380
  P     -103.478     252.798     583.942
  C     -102.231     251.158     582.342
  O     -103.428     251.864     582.655
  O     -103.283     251.795     585.153
  O     -102.445     253.881     583.934
  H     -102.364     251.849     585.510
  H     -102.378     250.585     581.451
  H     -101.981     250.503     583.150
  H     -101.435     251.856     582.190

 6  7  8  9  10  11  12  13  14  15  25  28  32  33  34  35 0
 6-311+G(2d,p)
 ****
 36  37  40 0
 6-311+G(2d,p)
 ****
 1  2  3  4  5  16  17  18  19  20  21  22  23  24 0
 3-21G
 ****
 26  27  29  30  31  38  39 41  42  43  44  45  46  47  48 0
 3-21G
 ****


