%nproc=1
%NoSave
%Mem=1900MB
#P OB98/GEN NMR

erre ene a

0 1
  C      306.807    -892.050    -479.158
  O      307.725    -893.150    -479.166
  P      309.152    -892.950    -479.869
  C      310.571    -894.050    -477.972
  O      310.270    -892.870    -478.722
  C      309.809    -894.040    -476.638
  O      308.382    -894.100    -476.834
  C      310.146    -895.230    -475.740
  O      311.335    -894.990    -475.017
  C      308.937    -895.210    -474.797
  O      309.122    -894.210    -473.789
  C      307.793    -894.830    -475.739
  N      304.092    -898.260    -474.778
  C      304.623    -897.240    -474.036
  N      305.613    -896.390    -474.351
  C      306.058    -896.630    -475.589
  C      305.636    -897.610    -476.479
  C      304.597    -898.450    -476.033
  N      304.059    -899.460    -476.797
  N      306.338    -897.560    -477.659
  C      307.180    -896.560    -477.495
  N      307.062    -895.960    -476.265
  O      309.065    -891.450    -480.414
  O      309.427    -893.930    -480.969
  H      308.887    -893.350    -474.192
  H      309.562    -891.380    -481.248
  H      304.177    -897.130    -473.048
  H      307.888    -896.210    -478.237
  H      307.064    -894.170    -475.253
  H      308.819    -896.180    -474.278
  H      310.178    -896.170    -476.314
  H      310.043    -893.100    -476.124
  H      311.648    -894.110    -477.783
  H      303.314    -900.000    -476.433
  H      304.422    -899.590    -477.737
  H      310.311    -894.920    -478.572
  P      312.506    -896.090    -475.152
  C      314.516    -894.610    -475.845
  O      313.513    -895.510    -476.240
  O      311.771    -897.310    -475.895
  O      313.115    -896.520    -473.857
  H      312.164    -898.160    -475.643
  H      315.293    -894.560    -476.628
  H      314.990    -894.940    -474.919
  H      314.102    -893.620    -475.694
  H      305.908    -892.340    -478.656
  H      306.579    -891.769    -480.165
  H      307.249    -891.220    -478.647

 3  4  5  6  7  8  9  10  11  12  22  25  29  30  31  32 0
 6-311+G(2d,p)
 ****
 33  36  37 0
 6-311+G(2d,p)
 ****
 1  2  13  14  15  16  17  18  19  20  21  23  24  26 0
 3-21G
 ****
 27  28  34  35  38  39  40  41  42  43  44  45  46  47  48 0
 3-21G
 ****


