%nproc=1
%NoSave
%Mem=1900MB
#P OB98/GEN NMR

erre ene a

0 1
  C     -364.949     141.739    -365.045
  O     -364.145     142.375    -366.019
  H     -365.311     142.493    -364.341
  H     -364.351     141.005    -364.495
  H     -365.810     141.247    -365.510
  P     -363.784     141.520    -367.328
  C     -361.891     139.863    -367.989
  O     -362.430     140.717    -366.987
  C     -360.467     139.438    -367.618
  O     -359.565     140.563    -367.701
  C     -360.331     138.892    -366.195
  O     -360.683     137.510    -366.139
  C     -358.845     139.080    -365.968
  O     -358.103     138.052    -366.659
  C     -358.589     140.446    -366.633
  N     -357.373     145.320    -365.910
  C     -357.006     144.458    -366.921
  N     -356.185     144.960    -367.876
  N     -357.397     143.207    -366.998
  C     -358.189     142.834    -365.960
  C     -358.620     143.599    -364.898
  C     -358.192     144.983    -364.844
  O     -358.509     145.795    -363.971
  N     -359.421     142.874    -364.046
  C     -359.450     141.666    -364.584
  N     -358.719     141.593    -365.749
  O     -363.309     142.641    -368.369
  O     -364.897     140.700    -367.885
  H     -357.154     138.243    -366.523
  H     -364.030     142.811    -369.004
  H     -357.045     146.274    -365.894
  H     -359.991     140.827    -364.179
  H     -357.594     140.510    -367.088
  H     -358.564     139.020    -364.913
  H     -355.824     145.906    -367.868
  H     -360.898     139.490    -365.467
  H     -355.897     144.347    -368.621
  H     -360.131     138.689    -368.355
  H     -361.871     140.395    -368.945
  H     -362.538     138.975    -368.081
  P     -360.499     136.752    -364.735
  C     -358.593     135.458    -363.544
  O     -358.995     136.178    -364.693
  O     -361.394     135.437    -364.928
  O     -360.923     137.520    -363.520
  H     -362.185     135.477    -364.350
  H     -357.577     135.142    -363.659
  H     -359.222     134.601    -363.422
  H     -358.676     136.087    -362.682

 6  7  8  9  10  11  12  13  14  15  26  29  33  34 0
 6-311+G(2d,p)
 ****
 36  38  39  40  41 0
 6-311+G(2d,p)
 ****
 1  2  3  4  5  16  17  18  19  20  21  22  23  24  25 0
 3-21G
 ****
 27  28  30  31  32  35  37  42  43  44  45  46  47 0
 3-21G
 ****
 48  49 0
 3-21G
 ****


