%nproc=1
%NoSave
%Mem=1900MB
#P OB98/GEN NMR

erre ene a

0 1
  C      162.899    -109.747     -82.182
  O      161.630    -109.116     -82.238
  P      161.074    -108.429     -80.897
  C      159.529    -109.267     -78.972
  O      160.434    -109.607     -80.010
  C      158.206    -110.018     -79.147
  O      157.543    -109.515     -80.337
  C      158.343    -111.534     -79.315
  O      157.182    -112.129     -78.727
  C      158.305    -111.720     -80.818
  O      157.940    -113.042     -81.203
  C      157.303    -110.641     -81.209
  N      156.089    -111.707     -86.006
  C      155.832    -112.419     -84.848
  N      155.095    -113.544     -84.986
  N      156.256    -112.062     -83.659
  C      156.965    -110.910     -83.678
  C      157.320    -110.138     -84.762
  C      156.816    -110.523     -86.060
  O      156.946    -109.878     -87.096
  N      158.122    -109.090     -84.392
  C      158.186    -109.183     -83.077
  N      157.461    -110.241     -82.597
  O      159.801    -107.614     -81.416
  O      162.047    -107.568     -80.156
  H      157.834    -113.053     -82.175
  H      160.038    -106.688     -81.619
  H      155.725    -112.024     -86.887
  H      158.727    -108.515     -82.427
  H      156.263    -110.963     -81.073
  H      159.295    -111.510     -81.243
  H      154.711    -113.862     -85.865
  H      159.251    -111.945     -78.860
  H      154.862    -114.065     -84.150
  H      157.563    -109.786     -78.292
  H      159.326    -108.190     -79.014
  H      159.979    -109.494     -78.001
  P      157.394    -113.381     -77.747
  C      157.807    -115.907     -78.144
  O      157.981    -114.587     -78.621
  O      155.889    -113.849     -77.442
  O      158.121    -113.071     -76.478
  H      155.835    -114.218     -76.541
  H      157.884    -116.597     -78.989
  H      156.832    -116.041     -77.668
  H      158.599    -116.141     -77.426
  H      163.136    -110.157     -83.142
  H      162.875    -110.532     -81.455
  H      163.643    -109.029     -81.907

 3  4  5  6  7  8  9  10  11  12  23  26  30  31 0
 6-311+G(2d,p)
 ****
 33  35  36  37  38 0
 6-311+G(2d,p)
 ****
 1  2  13  14  15  16  17  18  19  20  21  22  24  25 0
 3-21G
 ****
 27  28  29  32  34  39  40  41  42  43  44  45  46  47  48  49 0
 3-21G
 ****


