%nproc=1
%NoSave
%Mem=1900MB
#P OB98/GEN NMR

erre ene a

0 1
  C      243.610      59.073     478.656
  O      243.019      58.451     477.523
  P      242.692      56.879     477.644
  C      244.317      56.210     475.706
  O      243.983      56.110     477.083
  C      245.541      55.339     475.405
  O      246.728      55.948     475.963
  C      245.469      53.941     475.987
  O      244.700      53.092     475.153
  C      246.944      53.558     476.057
  O      247.422      53.117     474.771
  C      247.596      54.888     476.462
  N      251.060      55.207     480.126
  C      251.208      54.879     478.792
  N      252.472      54.646     478.363
  N      250.209      54.794     477.952
  C      249.010      55.038     478.524
  C      248.731      55.358     479.836
  C      249.849      55.505     480.740
  O      249.780      55.880     481.904
  N      247.387      55.512     480.048
  C      246.853      55.319     478.858
  N      247.802      55.049     477.887
  O      241.573      56.657     476.513
  O      242.237      56.425     478.999
  H      248.388      52.997     474.805
  H      240.685      56.657     476.911
  H      251.870      55.277     480.726
  H      245.799      55.388     478.633
  H      248.580      55.035     475.986
  H      247.131      52.743     476.762
  H      253.284      54.676     478.960
  H      245.050      53.964     477.003
  H      252.596      54.402     477.391
  H      245.667      55.301     474.317
  H      244.545      57.255     475.465
  H      243.455      55.887     475.102
  P      244.500      51.567     475.618
  C      245.367      50.433     473.447
  O      245.572      50.687     474.824
  O      243.102      51.160     474.957
  O      244.485      51.373     477.104
  H      242.621      50.563     475.561
  H      246.340      50.319     472.953
  H      244.819      51.253     472.965
  H      244.796      49.507     473.328
  H      243.776      60.109     478.448
  H      244.544      58.600     478.876
  H      242.955      58.978     479.497

 3  4  5  6  7  8  9  10  11  12  23  26  30  31 0
 6-311+G(2d,p)
 ****
 33  35  36  37  38 0
 6-311+G(2d,p)
 ****
 1  2  13  14  15  16  17  18  19  20  21  22  24  25 0
 3-21G
 ****
 27  28  29  32  34  39  40  41  42  43  44  45  46  47  48  49 0
 3-21G
 ****


