%nproc=1
%NoSave
%Mem=1900MB
#P OB98/GEN NMR

erre ene a

0 1
  C      594.746     686.042     753.129
  O      596.118     686.219     752.844
  H      594.171     685.940     752.204
  H      594.626     685.134     753.721
  H      594.366     686.890     753.708
  P      596.490     687.454     751.883
  C      596.107     686.422     749.536
  O      597.048     686.821     750.520
  C      596.817     685.820     748.335
  O      597.452     686.862     747.554
  C      597.932     684.838     748.673
  O      597.415     683.559     749.023
  C      598.693     684.802     747.360
  O      598.023     683.918     746.438
  C      598.588     686.256     746.876
  N      603.360     687.358     745.344
  C      602.426     686.506     744.856
  N      601.190     686.254     745.320
  C      600.919     687.009     746.395
  C      601.766     687.918     747.010
  C      603.041     688.083     746.449
  N      603.996     688.940     746.956
  N      601.147     688.512     748.090
  C      599.947     687.969     748.132
  N      599.764     687.049     747.137
  O      597.797     688.076     752.568
  O      595.417     688.480     751.721
  H      598.187     683.013     746.753
  H      597.783     689.043     752.464
  H      602.722     685.951     743.963
  H      599.178     688.223     748.858
  H      598.358     686.301     745.800
  H      599.719     684.442     747.466
  H      598.585     685.239     749.463
  H      596.061     685.345     747.696
  H      595.528     687.297     749.214
  H      604.806     689.153     746.401
  H      603.743     689.482     747.773
  H      595.415     685.696     749.980
  P      597.470     683.134     750.575
  C      600.030     682.712     750.727
  O      598.729     682.141     750.707
  O      596.207     682.168     750.731
  O      597.423     684.266     751.545
  H      595.906     682.160     751.665
  H      600.759     681.934     750.818
  H      600.114     683.379     751.559
  H      600.196     683.252     749.819

 6  7  8  9  10  11  12  13  14  15  25  28  32  33  34  35 0
 6-311+G(2d,p)
 ****
 36  39  40 0
 6-311+G(2d,p)
 ****
 1  2  3  4  5  16  17  18  19  20  21  22  23  24 0
 3-21G
 ****
 26  27  29  30  31  37  38  41  42  43  44  45  46  47  48 0
 3-21G
 ****


