%nproc=1
%NoSave
%Mem=1900MB
#P OB98/GEN NMR

erre ene a

0 1
  C     -169.122    -571.024     320.641
  O     -170.496    -570.731     320.795
  H     -168.580    -570.088     320.479
  H     -168.966    -571.679     319.780
  H     -168.738    -571.500     321.551
  P     -171.478    -571.978     321.016
  C     -173.476    -570.450     320.388
  O     -172.760    -571.646     320.107
  C     -173.816    -569.712     319.095
  O     -172.666    -569.010     318.600
  C     -174.283    -570.623     317.969
  O     -175.663    -570.912     318.099
  C     -174.018    -569.736     316.762
  O     -175.097    -568.790     316.605
  C     -172.728    -568.999     317.151
  N     -167.778    -568.131     316.067
  C     -168.782    -567.291     316.420
  N     -170.085    -567.581     316.639
  C     -170.308    -568.898     316.465
  C     -169.392    -569.865     316.102
  C     -168.068    -569.439     315.905
  N     -167.053    -570.287     315.539
  N     -169.993    -571.104     316.018
  C     -171.246    -570.899     316.386
  N     -171.492    -569.566     316.628
  O     -171.755    -572.342     322.436
  O     -170.735    -573.111     320.158
  H     -174.859    -568.218     315.844
  H     -170.387    -572.736     319.331
  H     -168.508    -566.244     316.545
  H     -171.994    -571.664     316.506
  H     -172.748    -567.950     316.839
  H     -173.955    -570.301     315.829
  H     -173.671    -571.530     317.892
  H     -174.587    -568.960     319.335
  H     -172.872    -569.803     321.037
  H     -166.187    -569.875     315.228
  H     -167.296    -571.240     315.296
  H     -174.385    -570.727     320.932
  P     -176.457    -571.708     316.955
  C     -178.700    -571.007     317.990
  O     -177.879    -570.968     316.837
  O     -176.508    -573.188     317.151
  O     -175.726    -571.288     315.605
  H     -175.950    -571.913     314.887
  H     -179.614    -570.486     317.795
  H     -178.190    -570.540     318.807
  H     -178.916    -572.025     318.240

 6  7  8  9  10  11  12  13  14  15  25  28  32  33  34  35 0
 6-311+G(2d,p)
 ****
 36  39  40 0
 6-311+G(2d,p)
 ****
 1  2  3  4  5  16  17  18  19  20  21  22  23  24 0
 3-21G
 ****
 26  27  29  30  31  37  38  41  42  43  44  45  46  47 0
 3-21G
 ****
 48 0
 3-21G
 ****


