%nproc=1
%NoSave
%Mem=1900MB
#P OB98/GEN NMR

erre ene a

0 1
  C      208.177     509.062     487.116
  O      209.112     509.451     486.128
  H      208.375     508.030     487.420
  H      208.292     509.712     487.986
  H      207.154     509.150     486.740
  P      208.927     508.836     484.658
  C      208.084     511.220     484.073
  O      207.924     509.822     483.879
  C      207.203     511.996     483.094
  O      207.793     511.901     481.764
  C      205.757     511.489     483.003
  O      204.887     512.619     482.870
  C      205.743     510.701     481.706
  O      204.446     510.621     481.123
  C      206.745     511.490     480.868
  N      205.629     509.570     476.292
  C      205.057     510.553     477.022
  N      205.453     511.040     478.215
  C      206.598     510.457     478.615
  C      207.298     509.448     477.974
  C      206.756     508.985     476.762
  N      207.290     507.939     476.044
  N      208.393     509.072     478.729
  C      208.338     509.820     479.810
  N      207.267     510.673     479.787
  O      208.031     507.536     484.941
  O      210.187     508.498     483.937
  H      204.471     509.970     480.393
  H      208.612     506.781     485.149
  H      204.160     510.999     476.598
  H      209.019     509.767     480.649
  H      206.303     512.389     480.416
  H      206.101     509.682     481.892
  H      205.445     510.884     483.864
  H      207.225     513.057     483.375
  H      209.129     511.485     483.896
  H      206.773     507.609     475.242
  H      208.063     507.424     476.437
  H      207.821     511.476     485.102
  P      204.170     513.158     484.197
  C      204.137     515.670     483.504
  O      204.597     514.686     484.427
  O      204.935     512.381     485.369
  O      202.697     512.900     484.238
  H      204.325     512.205     486.112
  H      204.506     516.632     483.795
  H      203.067     515.684     483.501
  H      204.493     515.433     482.523

 6  7  8  9  10  11  12  13  14  15  25  28  32  33  34  35 0
 6-311+G(2d,p)
 ****
 36  39  40 0
 6-311+G(2d,p)
 ****
 1  2  3  4  5  16  17  18  19  20  21  22  23  24 0
 3-21G
 ****
 26  27  29  30  31  37  38  41  42  43  44  45  46  47 0
 3-21G
 ****
 48 0
 3-21G
 ****


