%nproc=1
%NoSave
%Mem=1900MB
#P OB98/GEN NMR

erre ene a

0 1
  C      223.185      98.163    -445.818
  O      222.140      97.189    -445.754
  P      221.692      96.706    -444.286
  C      219.916      98.604    -444.440
  O      220.215      97.276    -444.023
  C      219.411      99.435    -443.260
  O      219.340     100.831    -443.608
  C      218.006      99.071    -442.802
  O      218.007      97.914    -441.976
  C      217.632     100.307    -441.994
  O      218.183     100.211    -440.668
  C      218.319     101.438    -442.779
  N      215.319     105.505    -443.164
  C      216.103     105.079    -442.110
  N      216.104     105.867    -441.010
  N      216.813     103.985    -442.129
  C      216.736     103.315    -443.305
  C      216.001     103.634    -444.421
  C      215.188     104.833    -444.374
  O      214.452     105.237    -445.269
  N      216.184     102.721    -445.426
  C      217.055     101.865    -444.930
  N      217.406     102.174    -443.638
  O      222.611      97.597    -443.320
  O      221.881      95.247    -444.042
  H      217.890     101.004    -440.175
  H      222.751      97.138    -442.472
  H      214.780     106.352    -443.093
  H      217.460     101.010    -445.462
  H      218.819     102.154    -442.115
  H      216.549     100.429    -441.879
  H      215.638     106.756    -440.953
  H      217.322      98.967    -443.657
  H      216.700     105.586    -440.240
  H      220.119      99.318    -442.430
  H      219.156      98.586    -445.227
  H      220.818      99.050    -444.876
  P      216.888      96.805    -442.271
  C      217.786      95.931    -444.542
  O      217.617      95.689    -443.161
  O      215.903      97.543    -443.302
  O      216.167      96.313    -441.058
  H      215.000      97.188    -443.213
  H      218.115      96.958    -444.728
  H      216.846      95.745    -445.069
  H      218.552      95.251    -444.931
  H      223.390      98.400    -446.841
  H      224.068      97.769    -445.359
  H      222.879      99.049    -445.301

 3  4  5  6  7  8  9  10  11  12  23  26  30  31  33  0
 6-311+G(2d,p)
 ****
 35  36  37  38 0
 6-311+G(2d,p)
 ****
 1  2  13  14  15  16  17  18  19  20  21  22  24  25  27  28  29 0
 3-21G
 ****
 32  34  39  40  41  42  43  44  45  46  47  48  49 0
 3-21G
 ****


