%nproc=1
%NoSave
%Mem=1900MB
#P OB98/GEN NMR

erre ene a

0 1
  C     -202.549     110.995     342.425
  O     -202.510     111.937     343.482
  P     -201.120     112.697     343.753
  C     -199.919     110.609     344.735
  O     -199.975     111.578     343.695
  C     -198.468     110.303     345.093
  O     -197.781     109.705     343.976
  C     -197.643     111.529     345.460
  O     -197.853     111.938     346.804
  C     -196.232     110.995     345.281
  O     -195.848     110.223     346.435
  C     -196.385     110.085     344.057
  N     -192.443     111.681     341.316
  C     -192.472     110.882     342.442
  N     -191.274     110.507     342.941
  N     -193.572     110.486     343.026
  C     -194.693     110.949     342.421
  C     -194.793     111.742     341.299
  C     -193.567     112.182     340.672
  O     -193.477     112.933     339.705
  N     -196.100     111.994     340.980
  C     -196.795     111.352     341.901
  N     -195.985     110.741     342.823
  O     -201.198     113.065     345.308
  O     -200.894     113.901     342.899
  H     -194.995     109.795     346.213
  H     -200.543     113.758     345.520
  H     -191.569     111.965     340.906
  H     -197.875     111.320     341.952
  H     -195.801     109.166     344.156
  H     -195.488     111.789     345.169
  H     -190.390     110.832     342.575
  H     -197.815     112.351     344.754
  H     -191.263     109.973     343.803
  H     -198.470     109.578     345.918
  H     -200.416     109.696     344.403
  H     -200.454     110.993     345.611
  P     -198.042     113.513     347.057
  C     -195.635     114.214     346.376
  O     -197.012     114.230     346.065
  O     -197.392     113.723     348.504
  O     -199.455     113.981     346.997
  H     -197.787     114.496     348.948
  H     -195.067     114.499     345.489
  H     -195.315     113.214     346.689
  H     -195.426     114.930     347.176
  H     -203.529     110.571     342.361
  H     -201.836     110.219     342.612
  H     -202.311     111.483     341.503

 3  4  5  6  7  8  9  10  11  12  23  26  30  31 0
 6-311+G(2d,p)
 ****
 33  35  36  37  38 0
 6-311+G(2d,p)
 ****
 1  2  13  14  15  16  17  18  19  20  21  22  24  25 0
 3-21G
 ****
 27  28  29  32  34  39  40  41  42  43  44  45  46  47  48  49 0
 3-21G
 ****


