%nproc=1
%NoSave
%Mem=1900MB
#P OB98/GEN NMR

erre ene a

0 1
  C        9.445      59.860      90.948
  O        9.353      59.918      92.362
  P        9.154      58.588      93.235
  C        6.764      59.319      93.835
  O        8.051      58.974      94.332
  C        5.716      59.151      94.932
  O        5.685      57.759      95.325
  C        5.971      59.927      96.223
  O        5.527      61.275      96.200
  C        5.116      59.133      97.203
  O        3.734      59.505      97.054
  C        5.333      57.694      96.729
  N        6.361      54.456     100.553
  C        5.195      54.909     100.040
  N        5.005      55.786      99.033
  C        6.181      56.170      98.513
  C        7.448      55.790      98.923
  C        7.517      54.888      99.998
  N        8.706      54.409     100.503
  N        8.416      56.410      98.157
  C        7.740      57.139      97.293
  N        6.388      57.020      97.462
  O       10.416      57.999      93.761
  O        8.363      57.594      92.265
  H        3.680      60.467      97.208
  H        8.426      56.679      92.601
  H        4.294      54.519     100.506
  H        8.185      57.765      96.534
  H        4.425      57.084      96.809
  H        5.384      59.317      98.247
  H        7.022      59.860      96.527
  H        4.734      59.404      94.512
  H        6.525      58.645      93.004
  H        8.655      53.669     101.184
  H        9.554      54.602      99.988
  H        6.778      60.342      93.455
  P        6.651      62.419      96.324
  C        6.442      64.187      98.241
  O        5.928      63.659      97.040
  O        7.358      62.735      95.053
  O        7.615      61.845      97.467
  H        7.222      61.797      98.353
  H        5.910      65.114      98.474
  H        7.507      64.413      98.146
  H        6.287      63.480      99.061
  H        9.575      60.848      90.558
  H        8.548      59.434      90.549
  H       10.282      59.254      90.670

 3  4  5  6  7  8  9  10  11  12  22  25  29  30  31  32 0
 6-311+G(2d,p)
 ****
 33  36  37 0
 6-311+G(2d,p)
 ****
 1  2  13  14  15  16  17  18  19  20  21  23  24  26 0
 3-21G
 ****
 27  28  34  35  38  39  40  41  42  43  44  45  46  47  48 0
 3-21G
 ****


