%nproc=1
%NoSave
%Mem=1900MB
#P OB98/GEN NMR

erre ene a

0 1
  C      354.151     686.839    -267.883
  O      353.478     685.787    -268.543
  H      353.496     687.704    -267.780
  H      354.443     686.497    -266.886
  H      355.056     687.116    -268.438
  P      352.934     686.096    -270.026
  C      350.392     686.346    -269.530
  O      351.432     685.530    -270.048
  C      349.104     685.537    -269.460
  O      348.568     685.331    -270.785
  C      349.282     684.147    -268.860
  O      349.288     684.165    -267.442
  C      348.042     683.446    -269.400
  O      346.891     683.846    -268.647
  C      347.969     683.996    -270.836
  N      347.561     680.204    -274.241
  C      346.639     680.827    -273.466
  N      346.828     681.840    -272.598
  C      348.117     682.220    -272.583
  C      349.159     681.690    -273.326
  C      348.844     680.620    -274.193
  N      349.784     679.968    -274.963
  N      350.345     682.331    -273.025
  C      350.014     683.245    -272.128
  N      348.683     683.191    -271.809
  O      353.729     685.054    -270.947
  O      353.070     687.507    -270.488
  H      346.684     684.768    -268.893
  H      353.643     685.298    -271.888
  H      345.625     680.448    -273.548
  H      350.696     683.951    -271.682
  H      346.935     684.111    -271.193
  H      348.115     682.359    -269.327
  H      350.174     683.653    -269.258
  H      348.357     686.119    -268.899
  H      350.246     687.207    -270.198
  H      349.481     679.128    -275.429
  H      350.759     680.178    -274.817
  H      350.665     686.704    -268.538
  P      350.655     683.733    -266.699
  C      349.034     682.295    -265.280
  O      350.223     683.068    -265.305
  O      351.272     685.145    -266.264
  O      351.589     682.939    -267.548
  H      352.252     685.117    -266.271
  H      348.874     681.918    -264.291
  H      349.126     681.477    -265.963
  H      348.204     682.907    -265.566

 6  7  8  9  10  11  12  13  14  15  25  28  32  33  34  35 0
 6-311+G(2d,p)
 ****
 36  39  40 0
 6-311+G(2d,p)
 ****
 1  2  3  4  5  16  17  18  19  20  21  22  23  24 0
 3-21G
 ****
 26  27  29  30  31  37  38  41  42  43  44  45  46  47 0
 3-21G
 ****
 48 0
 3-21G
 ****


