%nproc=1
%NoSave
%Mem=1900MB
#P OB98/GEN NMR

erre ene a

0 1
  C     -434.380    -675.184    -683.984
  O     -435.238    -675.911    -684.841
  H     -433.513    -675.803    -683.755
  H     -434.894    -674.944    -683.049
  H     -434.040    -674.264    -684.468
  P     -436.537    -675.185    -685.438
  C     -435.686    -674.891    -687.852
  O     -436.028    -674.244    -686.633
  C     -436.270    -674.119    -689.032
  O     -437.718    -674.109    -688.952
  C     -435.847    -672.658    -689.090
  O     -434.519    -672.538    -689.559
  C     -436.917    -672.090    -690.015
  O     -436.622    -672.392    -691.386
  C     -438.170    -672.874    -689.555
  N     -439.000    -672.107    -688.620
  C     -439.815    -671.130    -689.180
  O     -439.850    -670.891    -690.382
  N     -440.550    -670.393    -688.291
  C     -440.493    -670.478    -686.930
  O     -441.001    -669.657    -686.177
  C     -439.674    -671.576    -686.404
  C     -438.967    -672.319    -687.252
  O     -437.424    -674.517    -684.442
  O     -437.304    -676.359    -686.211
  H     -438.041    -676.678    -685.664
  H     -435.849    -671.842    -691.634
  H     -441.110    -669.651    -688.685
  H     -439.650    -671.719    -685.330
  H     -438.333    -673.122    -686.881
  H     -438.790    -673.143    -690.412
  H     -437.005    -671.008    -689.934
  H     -435.961    -672.193    -688.097
  H     -435.991    -674.643    -689.958
  H     -436.096    -675.906    -687.836
  H     -434.596    -674.950    -687.936
  P     -433.861    -671.102    -689.832
  C     -431.919    -671.028    -688.154
  O     -433.234    -670.577    -688.451
  O     -434.745    -670.122    -690.522
  O     -432.564    -671.429    -690.711
  H     -432.588    -670.883    -691.527
  H     -431.605    -670.619    -687.217
  H     -431.250    -670.708    -688.925
  H     -431.913    -672.096    -688.096

 6  7  8  9  10  11  12  13  14  15  16  27  31  32  33  34  35 0
 6-311+G(2d,p)
 ****
 36  37 0
 6-311+G(2d,p)
 ****
 1  2  3  4  5  17  18  19  20  21  22  23  24  25 0
 3-21G
 ****
 26  28  29  30  38  39  40  41  42  43  44  45 0
 3-21G
 ****


