%nproc=1
%NoSave
%Mem=1900MB
#P OB98/GEN NMR

erre ene a

0 1
  C       64.457    -152.499    -303.764
  O       64.439    -151.279    -304.489
  P       64.042    -149.897    -303.773
  C       64.749    -147.443    -304.172
  O       65.066    -148.815    -304.367
  C       65.988    -146.585    -304.408
  O       66.842    -146.642    -303.249
  C       66.851    -147.032    -305.582
  O       66.269    -146.647    -306.820
  C       68.173    -146.356    -305.240
  O       68.137    -144.970    -305.611
  C       68.208    -146.486    -303.702
  N       69.045    -147.590    -303.247
  C       70.428    -147.396    -303.319
  O       70.899    -146.340    -303.740
  N       71.256    -148.400    -302.877
  C       70.752    -149.504    -302.424
  N       71.617    -150.437    -301.938
  C       69.302    -149.773    -302.382
  C       68.516    -148.781    -302.800
  O       63.991    -149.955    -302.283
  O       62.661    -149.476    -304.451
  H       67.202    -144.687    -305.556
  H       61.866    -149.850    -303.996
  H       68.929    -150.717    -302.009
  H       67.439    -148.890    -302.781
  H       68.574    -145.556    -303.252
  H       69.037    -146.812    -305.736
  H       66.980    -148.120    -305.570
  H       65.666    -145.544    -304.545
  H       72.581    -150.141    -301.824
  H       64.408    -147.306    -303.139
  H       71.306    -151.175    -301.321
  H       63.937    -147.160    -304.849
  P       67.062    -147.026    -308.159
  C       66.366    -147.922    -310.493
  O       65.958    -147.598    -309.176
  O       67.915    -148.310    -307.732
  O       67.919    -145.930    -308.699
  H       68.842    -148.060    -307.557
  H       65.575    -148.509    -310.966
  H       67.283    -148.518    -310.479
  H       66.521    -147.007    -311.070
  H       64.745    -153.297    -304.416
  H       63.481    -152.694    -303.370
  H       65.158    -152.425    -302.959

 3  4  5  6  7  8  9  10  11  12  13  23  27  28  29  30  32 0
 6-311+G(2d,p)
 ****
 34  35 0
 6-311+G(2d,p)
 ****
 1  2  14  15  16  17  18  19  20  21  22  24  25  26 0
 3-21G
 ****
 31  33  36  37  38  39  40  41  42  43  44  45  46 0
 3-21G
 ****


