%nproc=1
%NoSave
%Mem=1900MB
#P OB98/GEN NMR

erre ene a

0 1
  C      240.886      44.521    -121.364
  O      239.550      44.564    -121.836
  P      238.851      46.005    -121.954
  C      239.389      48.114    -123.370
  O      239.892      46.952    -122.724
  C      240.089      49.378    -122.869
  O      239.505      49.768    -121.602
  C      241.597      49.219    -122.667
  O      242.221      50.446    -123.048
  C      241.736      49.040    -121.167
  O      243.031      49.421    -120.708
  C      240.581      49.915    -120.654
  N      240.161      49.540    -119.307
  C      239.003      50.149    -118.815
  O      238.433      51.015    -119.476
  N      238.552      49.799    -117.567
  C      239.254      48.994    -116.832
  N      238.763      48.676    -115.605
  C      240.546      48.427    -117.267
  C      240.924      48.722    -118.510
  O      238.898      46.549    -120.451
  O      237.463      45.980    -122.505
  H      243.667      48.725    -120.981
  H      238.127      47.117    -120.262
  H      241.110      47.789    -116.602
  H      241.844      48.332    -118.922
  H      240.874      50.973    -120.645
  H      241.569      47.989    -120.900
  H      242.019      48.394    -123.248
  H      239.885      50.187    -123.582
  H      237.883      49.089    -115.323
  H      238.321      48.207    -123.154
  H      239.243      48.057    -114.964
  H      239.509      48.009    -124.453
  P      243.738      50.379    -123.565
  C      244.716      49.345    -125.700
  O      243.745      49.227    -124.681
  O      244.462      49.640    -122.338
  O      244.427      51.658    -123.906
  H      245.420      49.593    -122.502
  H      244.700      48.434    -126.305
  H      245.713      49.465    -125.269
  H      244.478      50.198    -126.344
  H      241.222      43.506    -121.337
  H      240.930      44.938    -120.380
  H      241.514      45.087    -122.020

 3  4  5  6  7  8  9  10  11  12  13  21  23  27  28  29  30  32 0
 6-311+G(2d,p)
 ****
 34  35 0
 6-311+G(2d,p)
 ****
 1  2  14  15  16  17  18  19  20  22  24  25  26 0
 3-21G
 ****
 31  33  36  37  38  39  40  41  42  43  44  45  46 0
 3-21G
 ****


