%nproc=1
%NoSave
%Mem=1900MB
#P OB98/GEN NMR

erre ene a

0 1
  C      224.051    -555.042    -364.686
  O      225.375    -554.545    -364.659
  H      223.362    -554.204    -364.557
  H      223.891    -555.754    -363.875
  H      223.843    -555.520    -365.647
  P      226.580    -555.589    -364.826
  C      228.876    -555.467    -366.002
  O      227.542    -554.975    -365.952
  C      229.586    -554.918    -367.238
  O      229.086    -555.556    -368.428
  C      229.406    -553.414    -367.440
  O      230.304    -552.692    -366.612
  C      229.729    -553.298    -368.919
  O      231.157    -553.373    -369.112
  C      229.051    -554.559    -369.488
  N      225.972    -552.534    -372.972
  C      227.351    -552.471    -372.856
  N      227.987    -551.718    -373.778
  N      228.026    -553.064    -371.911
  C      227.249    -553.719    -371.022
  C      225.877    -553.844    -371.021
  C      225.138    -553.227    -372.099
  O      223.920    -553.278    -372.250
  N      225.434    -554.529    -369.917
  C      226.541    -554.849    -369.275
  N      227.666    -554.372    -369.897
  O      226.192    -557.017    -365.074
  O      227.432    -555.421    -363.482
  H      231.537    -552.591    -368.671
  H      227.142    -556.058    -362.801
  H      225.502    -552.038    -373.710
  H      226.579    -555.433    -368.358
  H      229.589    -554.970    -370.348
  H      229.390    -552.363    -369.360
  H      227.503    -551.023    -374.333
  H      228.369    -553.106    -367.287
  H      228.987    -551.618    -373.684
  H      230.650    -555.180    -367.154
  H      228.825    -556.560    -366.043
  H      229.421    -555.171    -365.103
  P      229.962    -551.201    -366.128
  C      231.423    -549.551    -364.775
  O      231.000    -550.901    -364.944
  O      228.531    -550.967    -365.777
  O      230.503    -550.262    -367.304
  H      229.837    -550.100    -368.020
  H      232.109    -549.492    -363.956
  H      230.573    -548.934    -364.573
  H      231.904    -549.213    -365.669

 6  7  8  9  10  11  12  13  14  15  26  29  33  34 0
 6-311+G(2d,p)
 ****
 36  38  39  40  41 0
 6-311+G(2d,p)
 ****
 1  2  3  4  5  16  17  18  19  20  21  22  23  24  25 0
 3-21G
 ****
 27  28  30  31  32  35  37  42  43  44  45  46  47 0
 3-21G
 ****
 48  49 0
 3-21G
 ****


