%nproc=1
%NoSave
%Mem=1900MB
#P OB98/GEN NMR

erre ene a

0 1
  C      768.591    -248.207     693.558
  O      769.827    -247.598     693.265
  H      767.842    -247.418     693.736
  H      768.671    -248.810     694.463
  H      768.246    -248.823     692.725
  P      771.052    -248.524     692.803
  C      772.025    -248.752     695.182
  O      771.453    -249.426     694.064
  C      773.240    -249.531     695.703
  O      772.838    -250.874     696.043
  C      774.352    -249.674     694.684
  O      775.086    -248.474     694.536
  C      775.135    -250.838     695.280
  O      776.005    -250.393     696.322
  C      773.999    -251.712     695.858
  N      773.705    -252.860     694.999
  C      774.527    -253.983     695.152
  O      775.447    -254.044     695.957
  N      774.277    -255.011     694.293
  C      773.411    -254.987     693.246
  O      773.406    -255.828     692.347
  C      772.527    -253.811     693.172
  C      772.722    -252.816     694.038
  O      772.185    -247.816     692.144
  O      770.364    -249.586     691.806
  H      770.552    -249.325     690.887
  H      775.484    -249.809     696.891
  H      774.910    -255.812     694.368
  H      771.782    -253.784     692.383
  H      772.107    -251.921     693.985
  H      774.285    -252.089     696.858
  H      775.734    -251.341     694.531
  H      773.944    -249.995     693.716
  H      773.597    -249.029     696.613
  H      771.268    -248.685     695.972
  H      772.318    -247.742     694.868
  P      775.702    -248.064     693.108
  C      778.185    -248.722     693.293
  O      776.916    -249.081     692.782
  O      776.030    -246.619     692.953
  O      774.577    -248.514     692.071
  H      774.394    -247.772     691.462
  H      778.904    -249.464     693.016
  H      778.134    -248.655     694.360
  H      778.477    -247.775     692.890

 6  7  8  9  10  11  12  13  14  15  16  27  31  32  33  34  35 0
 6-311+G(2d,p)
 ****
 36  37 0
 6-311+G(2d,p)
 ****
 1  2  3  4  5  17  18  19  20  21  22  23  24  25 0
 3-21G
 ****
 26  28  29  30  38  39  40  41  42  43  44  45 0
 3-21G
 ****


