%nproc=1
%NoSave
%Mem=1900MB
#P OB98/GEN NMR

erre ene a

0 1
  C      390.164     102.727    -348.051
  O      389.152     103.438    -347.365
  H      391.124     102.947    -347.578
  H      390.208     103.037    -349.098
  H      389.983     101.649    -347.987
  P      387.645     103.316    -347.890
  C      387.536     105.877    -347.577
  O      386.883     104.630    -347.372
  C      387.395     106.758    -346.337
  O      386.007     107.017    -346.059
  C      387.981     106.146    -345.061
  O      389.380     106.341    -345.013
  C      387.241     106.951    -344.007
  O      387.826     108.265    -343.900
  C      385.831     107.054    -344.618
  N      381.440     105.961    -342.315
  C      382.119     107.160    -342.405
  N      381.567     108.210    -341.761
  N      383.243     107.314    -343.051
  C      383.715     106.165    -343.583
  C      383.145     104.911    -343.549
  C      381.865     104.771    -342.886
  O      381.218     103.730    -342.810
  N      383.961     103.970    -344.122
  C      385.000     104.657    -344.549
  N      384.906     105.997    -344.240
  O      386.934     102.035    -347.563
  O      387.754     103.556    -349.467
  H      387.256     108.787    -343.306
  H      387.861     102.714    -349.945
  H      380.580     105.902    -341.796
  H      385.847     104.246    -345.087
  H      385.344     108.004    -344.367
  H      387.290     106.496    -343.014
  H      380.787     108.123    -341.125
  H      387.706     105.090    -344.961
  H      382.079     109.086    -341.765
  H      387.865     107.725    -346.559
  H      387.067     106.358    -348.441
  H      388.598     105.721    -347.795
  P      390.283     105.672    -343.861
  C      391.773     107.681    -343.202
  O      391.682     106.457    -343.910
  O      390.400     104.188    -343.940
  O      389.645     106.212    -342.502
  H      388.883     105.661    -342.186
  H      392.754     108.090    -343.322
  H      391.584     107.507    -342.163
  H      391.050     108.370    -343.586

 6  7  8  9  10  11  12  13  14  15  26  29  33  34 0
 6-311+G(2d,p)
 ****
 36  38  39  40  41 0
 6-311+G(2d,p)
 ****
 1  2  3  4  5  16  17  18  19  20  21  22  23  24  25 0
 3-21G
 ****
 27  28  30  31  32  35  37  42  43  44  45  46  47 0
 3-21G
 ****
 48  49 0
 3-21G
 ****


