%nproc=1
%NoSave
%Mem=1900MB
#P OB98/GEN NMR

erre ene a

0 1
  C       82.402      51.923      89.623
  O       82.888      51.001      88.669
  H       81.594      51.449      90.187
  H       82.008      52.818      89.135
  H       83.197      52.199      90.320
  P       83.973      51.497      87.598
  C       82.226      51.717      85.717
  O       83.180      52.392      86.526
  C       81.927      52.518      84.448
  O       80.957      53.553      84.773
  C       83.162      53.198      83.843
  O       83.054      53.146      82.419
  C       83.030      54.624      84.339
  O       83.731      55.529      83.508
  C       81.511      54.820      84.379
  N       81.139      55.892      85.300
  C       81.681      57.156      85.040
  O       82.418      57.326      84.067
  N       81.433      58.180      85.919
  C       80.750      57.954      86.997
  N       80.573      59.003      87.844
  C       80.182      56.629      87.327
  C       80.408      55.656      86.444
  O       84.845      50.440      87.005
  O       84.833      52.579      88.407
  H       84.667      55.243      83.431
  H       85.595      52.148      88.838
  H       79.624      56.489      88.241
  H       80.041      54.647      86.609
  H       81.124      55.064      83.381
  H       83.450      54.704      85.350
  H       84.103      52.738      84.164
  H       81.451      51.852      83.719
  H       81.003      59.883      87.587
  H       81.307      51.600      86.305
  H       80.096      58.936      88.732
  H       82.603      50.722      85.452
  P       83.798      51.996      81.584
  C       85.379      53.689      80.492
  O       85.294      52.479      81.238
  O       83.028      51.478      80.409
  O       84.027      50.830      82.662
  H       84.018      49.965      82.205
  H       86.407      53.926      80.313
  H       84.922      54.482      81.046
  H       84.872      53.568      79.557

 6  7  8  9  10  11  12  13  14  15  16  26  30  31  32  33  35 0
 6-311+G(2d,p)
 ****
 37  38 0
 6-311+G(2d,p)
 ****
 1  2  3  4  5  17  18  19  20  21  22  23  24  25 0
 3-21G
 ****
 27  28  29  34  36  39  40  41  42  43  44  45  46 0
 3-21G
 ****


