%nproc=1
%NoSave
%Mem=1900MB
#P OB98/GEN NMR

erre ene a

0 1
  C      -61.041    -899.140      35.137
  O      -61.313    -898.180      36.143
  H      -60.547    -900.000      35.596
  H      -60.373    -898.710      34.382
  H      -61.971    -899.470      34.668
  P      -62.191    -896.910      35.713
  C      -61.963    -895.800      38.085
  O      -61.771    -895.700      36.684
  C      -61.181    -894.710      38.809
  O      -59.769    -894.970      38.786
  C      -61.304    -893.330      38.153
  O      -62.580    -892.760      38.327
  C      -60.185    -892.590      38.868
  O      -60.587    -892.170      40.178
  C      -59.098    -893.690      38.957
  N      -58.032    -893.500      37.977
  C      -57.274    -892.330      38.109
  O      -57.514    -891.530      39.024
  N      -56.279    -892.080      37.189
  C      -56.051    -892.940      36.232
  N      -55.066    -892.630      35.354
  C      -56.811    -894.180      36.070
  C      -57.776    -894.410      36.964
  O      -63.652    -897.300      36.246
  O      -62.131    -896.550      34.263
  H      -61.295    -891.510      40.065
  H      -63.676    -897.540      37.187
  H      -56.574    -894.870      35.265
  H      -58.381    -895.300      36.913
  H      -58.636    -893.700      39.955
  H      -59.880    -891.690      38.331
  H      -61.041    -893.390      37.089
  H      -61.516    -894.680      39.859
  H      -54.579    -891.730      35.490
  H      -61.658    -896.790      38.449
  H      -54.808    -893.180      34.556
  H      -63.040    -895.690      38.290
  P      -63.557    -892.520      37.076
  C      -65.657    -892.300      38.544
  O      -64.791    -891.660      37.625
  O      -63.932    -893.750      36.329
  O      -62.750    -891.450      36.189
  H      -62.564    -890.600      36.638
  H      -66.434    -891.623      38.832
  H      -65.103    -892.596      39.410
  H      -66.089    -893.165      38.085

 6  7  8  9  10  11  12  13  14  15  16  26  30  31  32  33  35 0
 6-311+G(2d,p)
 ****
 37  38 0
 6-311+G(2d,p)
 ****
 1  2  3  4  5  17  18  19  20  21  22  23  24  25 0
 3-21G
 ****
 27  28  29  34  36  39  40  41  42  43  44  45  46 0
 3-21G
 ****


