%nproc=1
%NoSave
%Mem=1900MB
#P OB98/GEN NMR

erre ene a

0 1
  C      865.917    -417.665     -57.921
  O      866.849    -418.699     -57.629
  P      867.661    -418.699     -56.242
  C      865.910    -420.284     -55.185
  O      866.563    -419.017     -55.121
  C      866.490    -421.217     -54.130
  O      866.459    -420.572     -52.839
  C      865.724    -422.521     -53.957
  O      866.019    -423.427     -55.010
  C      866.200    -422.958     -52.574
  O      867.507    -423.562     -52.657
  C      866.300    -421.606     -51.838
  N      865.148    -421.338     -50.982
  C      865.246    -421.752     -49.650
  O      866.266    -422.301     -49.227
  N      864.190    -421.498     -48.802
  C      863.130    -420.903     -49.247
  N      862.142    -420.625     -48.352
  C      862.961    -420.505     -50.660
  C      863.999    -420.744     -51.461
  O      868.468    -417.468     -55.990
  O      868.520    -420.046     -56.280
  H      868.121    -422.858     -52.941
  H      869.403    -419.936     -56.710
  H      862.041    -420.024     -50.985
  H      863.962    -420.458     -52.506
  H      867.203    -421.578     -51.218
  H      865.536    -423.677     -52.090
  H      864.647    -422.335     -53.935
  H      867.543    -421.418     -54.385
  H      862.374    -420.753     -47.371
  H      866.089    -420.712     -56.180
  H      861.432    -419.928     -48.547
  H      864.836    -420.141     -55.043
  P      864.956    -424.585     -55.311
  C      864.523    -423.565     -57.647
  O      863.961    -423.999     -56.432
  O      864.067    -424.629     -53.980
  O      865.562    -425.919     -55.632
  H      864.342    -425.372     -53.405
  H      863.713    -423.426     -58.379
  H      865.220    -424.315     -58.046
  H      865.041    -422.615     -57.512
  H      865.482    -417.838     -58.883
  H      866.421    -416.721     -57.922
  H      865.148    -417.658     -57.177

 3  4  5  6  7  8  9  10  11  12  13  23  27  28  29  30  32 0
 6-311+G(2d,p)
 ****
 34  35 0
 6-311+G(2d,p)
 ****
 1  2  14  15  16  17  18  19  20  21  22  24  25  26 0
 3-21G
 ****
 31  33  36  37  38  39  40  41  42  43  44  45  46 0
 3-21G
 ****


