%nproc=1
%NoSave
%Mem=1900MB
#P OB98/GEN NMR

erre ene a

0 1
  C     -567.204    -256.717    -200.446
  O     -567.090    -257.576    -199.325
  H     -568.214    -256.810    -200.863
  H     -566.487    -256.996    -201.226
  H     -567.042    -255.680    -200.148
  P     -565.653    -257.738    -198.638
  C     -566.233    -257.043    -196.216
  O     -565.627    -256.670    -197.446
  C     -565.161    -257.280    -195.155
  O     -564.309    -256.123    -195.037
  C     -565.740    -257.523    -193.763
  O     -566.267    -258.827    -193.656
  C     -564.523    -257.231    -192.902
  O     -563.628    -258.347    -192.863
  C     -563.889    -256.040    -193.655
  N     -564.258    -254.743    -193.073
  C     -563.484    -254.322    -191.991
  O     -562.556    -255.012    -191.574
  N     -563.801    -253.124    -191.390
  C     -564.788    -252.412    -191.839
  N     -565.046    -251.242    -191.202
  C     -565.614    -252.828    -192.992
  C     -565.298    -253.990    -193.551
  O     -564.461    -257.685    -199.545
  O     -565.760    -259.137    -197.866
  H     -562.931    -258.112    -192.223
  H     -565.482    -259.869    -198.445
  H     -566.426    -252.196    -193.337
  H     -565.861    -254.360    -194.402
  H     -562.796    -256.120    -193.647
  H     -564.808    -256.998    -191.877
  H     -566.504    -256.770    -193.537
  H     -564.537    -258.128    -195.472
  H     -564.464    -251.008    -190.409
  H     -566.802    -257.965    -196.393
  H     -565.732    -250.575    -191.515
  H     -566.931    -256.267    -195.872
  P     -567.759    -259.061    -193.112
  C     -568.455    -259.920    -195.442
  O     -568.703    -258.968    -194.412
  O     -568.161    -258.192    -191.974
  O     -567.781    -260.623    -192.770
  H     -567.280    -260.821    -191.937
  H     -569.140    -259.760    -196.248
  H     -568.586    -260.908    -195.053
  H     -567.452    -259.807    -195.798

 6  7  8  9  10  11  12  13  14  15  16  26  30  31  32  33  35 0
 6-311+G(2d,p)
 ****
 37  38 0
 6-311+G(2d,p)
 ****
 1  2  3  4  5  17  18  19  20  21  22  23  24  25 0
 3-21G
 ****
 27  28  29  34  36  39  40  41  42  43  44  45  46 0
 3-21G
 ****


