%nproc=1
%NoSave
%Mem=1900MB
#P OB98/GEN NMR

erre ene a

0 1
  C     -537.869    -167.391    -646.514
  O     -537.389    -168.671    -646.866
  H     -537.456    -166.657    -647.221
  H     -537.534    -167.127    -645.507
  H     -538.961    -167.352    -646.572
  P     -537.984    -169.954    -646.105
  C     -539.195    -171.107    -648.077
  O     -538.078    -171.134    -647.187
  C     -538.788    -171.590    -649.471
  O     -538.205    -170.457    -650.204
  C     -537.725    -172.712    -649.481
  O     -537.961    -173.503    -650.658
  C     -536.443    -171.910    -649.596
  O     -535.324    -172.706    -649.885
  C     -536.888    -170.877    -650.646
  N     -536.004    -169.728    -650.807
  C     -534.737    -169.956    -651.346
  O     -534.317    -171.066    -651.689
  N     -533.928    -168.845    -651.466
  C     -534.269    -167.574    -651.133
  O     -533.532    -166.618    -651.299
  C     -535.624    -167.389    -650.570
  C     -536.415    -168.458    -650.445
  O     -539.224    -169.717    -645.314
  O     -536.769    -170.433    -645.172
  H     -536.929    -170.142    -644.255
  H     -534.534    -172.135    -649.946
  H     -533.022    -169.001    -651.863
  H     -535.908    -166.391    -650.277
  H     -537.412    -168.362    -650.031
  H     -537.019    -171.374    -651.605
  H     -536.219    -171.418    -648.637
  H     -537.791    -173.355    -648.591
  H     -539.689    -171.884    -650.021
  H     -539.570    -170.079    -648.137
  H     -539.991    -171.753    -647.677
  P     -537.187    -174.881    -650.967
  C     -539.339    -176.310    -651.171
  O     -538.172    -175.820    -651.831
  O     -536.631    -175.549    -649.753
  O     -536.019    -174.488    -651.993
  H     -535.290    -175.126    -651.915
  H     -539.904    -176.916    -651.848
  H     -539.938    -175.485    -650.846
  H     -539.050    -176.897    -650.324

 6  7  8  9  10  11  12  13  14  15  16  27  31  32  33  34  35 0
 6-311+G(2d,p)
 ****
 36  37 0
 6-311+G(2d,p)
 ****
 1  2  3  4  5  17  18  19  20  21  22  23  24  25 0
 3-21G
 ****
 26  28  29  30  38  39  40  41  42  43  44  45 0
 3-21G
 ****


