%nproc=1
%NoSave
%Mem=1900MB
#P OB98/GEN NMR

erre ene a

0 1
  C     -179.777     142.659     -38.445
  O     -178.411     142.890     -38.726
  P     -177.782     144.356     -38.563
  C     -177.280     144.171     -36.040
  O     -178.085     144.783     -37.044
  C     -176.503     145.224     -35.250
  O     -175.634     145.973     -36.122
  C     -177.383     146.253     -34.555
  O     -177.960     145.706     -33.383
  C     -176.382     147.374     -34.305
  O     -175.607     147.127     -33.122
  C     -175.493     147.299     -35.566
  N     -175.820     148.332     -36.540
  C     -175.224     149.580     -36.329
  O     -174.500     149.768     -35.350
  N     -175.504     150.601     -37.207
  C     -176.324     150.395     -38.190
  N     -176.570     151.447     -39.017
  C     -176.997     149.103     -38.428
  C     -176.704     148.127     -37.572
  O     -178.193     145.345     -39.601
  O     -176.206     144.073     -38.545
  H     -174.990     146.402     -33.347
  H     -175.868     143.854     -39.448
  H     -177.682     148.983     -39.254
  H     -177.155     147.147     -37.671
  H     -174.434     147.407     -35.296
  H     -176.875     148.342     -34.171
  H     -178.161     146.603     -35.244
  H     -175.877     144.702     -34.513
  H     -176.112     152.324     -38.802
  H     -176.574     143.495     -36.531
  H     -177.217     151.407     -39.789
  H     -177.918     143.579     -35.375
  P     -179.217     146.427     -32.703
  C     -180.997     145.152     -34.040
  O     -180.421     146.412     -33.759
  O     -178.935     147.752     -32.076
  O     -179.696     145.371     -31.597
  H     -179.891     145.846     -30.767
  H     -181.982     145.307     -34.488
  H     -181.110     144.560     -33.128
  H     -180.365     144.613     -34.750
  H     -180.006     141.627     -38.612
  H     -180.381     143.266     -39.087
  H     -179.978     142.909     -37.424

 3  4  5  6  7  8  9  10  11  12  13  23  27  28  29  30  32 0
 6-311+G(2d,p)
 ****
 34  35 0
 6-311+G(2d,p)
 ****
 1  2  14  15  16  17  18  19  20  21  22  24  25  26 0
 3-21G
 ****
 31  33  36  37  38  39  40  41  42  43  44  45  46 0
 3-21G
 ****


