%nproc=1
%NoSave
%Mem=1900MB
#P OB98/GEN NMR

erre ene a

0 1
  C      201.483     831.741    -106.810
  O      201.025     832.960    -107.358
  H      201.163     830.927    -107.460
  H      201.046     831.589    -105.819
  H      202.574     831.731    -106.742
  P      201.501     834.339    -106.681
  C      199.478     835.072    -105.259
  O      200.190     835.240    -106.484
  C      198.017     835.476    -105.451
  O      197.928     836.859    -105.838
  C      197.307     834.697    -106.562
  O      196.985     833.383    -106.155
  C      196.118     835.606    -106.821
  O      195.069     835.372    -105.877
  C      196.729     837.009    -106.635
  N      197.021     837.654    -107.913
  C      196.414     838.887    -108.130
  O      195.657     839.434    -107.319
  N      196.629     839.451    -109.364
  C      197.263     838.847    -110.412
  O      197.225     839.280    -111.563
  C      197.945     837.581    -110.101
  C      197.785     837.050    -108.896
  O      202.647     835.024    -107.354
  O      201.870     833.913    -105.182
  H      202.841     833.841    -105.097
  H      195.463     835.519    -104.991
  H      196.148     840.323    -109.546
  H      198.526     837.108    -110.888
  H      198.255     836.096    -108.642
  H      196.050     837.651    -106.056
  H      195.697     835.436    -107.826
  H      197.944     834.673    -107.461
  H      197.495     835.351    -104.493
  H      199.935     835.717    -104.494
  H      199.562     834.026    -104.942
  P      197.429     832.131    -107.046
  C      195.196     830.839    -106.999
  O      196.562     830.854    -106.590
  O      198.900     831.891    -107.127
  O      196.827     832.459    -108.501
  H      197.528     832.345    -109.165
  H      194.726     829.948    -106.639
  H      195.143     830.864    -108.067
  H      194.694     831.694    -106.597

 6  7  8  9  10  11  12  13  14  15  16  27  31  32  33  34  35 0
 6-311+G(2d,p)
 ****
 36  37 0
 6-311+G(2d,p)
 ****
 1  2  3  4  5  17  18  19  20  21  22  23  24  25 0
 3-21G
 ****
 26  28  29  30  38  39  40  41  42  43  44  45 0
 3-21G
 ****


