%nproc=1
%NoSave
%Mem=1900MB
#P OB98/GEN NMR

erre ene a

0 1
  C     -295.452      64.609     359.611
  O     -295.923      64.427     358.258
  P     -297.484      64.083     358.070
  C     -297.415      62.457     356.017
  O     -297.658      63.761     356.507
  C     -297.378      62.471     354.483
  O     -298.575      63.094     353.954
  C     -296.219      63.236     353.902
  O     -294.991      62.531     354.018
  C     -296.694      63.447     352.470
  O     -296.458      62.255     351.689
  C     -298.223      63.648     352.663
  N     -298.628      65.042     352.553
  C     -299.291      65.384     351.385
  O     -299.522      64.582     350.479
  N     -299.696      66.694     351.292
  C     -299.470      67.682     352.197
  O     -299.848      68.828     352.073
  C     -298.705      67.269     353.397
  C     -298.332      65.985     353.517
  O     -298.134      65.531     358.270
  O     -297.970      63.041     359.010
  H     -297.585      66.253     357.909
  H     -295.498      62.246     351.475
  H     -300.202      66.957     350.452
  H     -298.482      68.021     354.133
  H     -297.759      65.667     354.400
  H     -298.778      63.064     351.926
  H     -296.191      64.273     351.969
  H     -296.126      64.217     354.401
  H     -297.350      61.421     354.143
  H     -298.195      61.772     356.355
  H     -296.473      62.093     356.443
  P     -293.686      63.389     354.395
  C     -292.151      61.740     353.043
  O     -292.443      62.389     354.282
  O     -293.873      63.569     355.981
  O     -293.554      64.671     353.639
  H     -294.166      62.747     356.425
  H     -291.113      61.405     353.065
  H     -292.294      62.421     352.213
  H     -292.802      60.872     352.937
  H     -294.405      64.831     359.597
  H     -295.619      63.712     360.170
  H     -295.983      65.418     360.068

 3  4  5  6  7  8  9  10  11  12  13  24  28  29  30  31  32 0
 6-311+G(2d,p)
 ****
 33  34 0
 6-311+G(2d,p)
 ****
 1  2  14  15  16  17  18  19  20  21  22  23  25  26  27 0
 3-21G
 ****
 35  36  37  38  39  40  41  42  43  44  45 0
 3-21G
 ****


