%nproc=1
%NoSave
%Mem=1900MB
#P OB98/GEN NMR

erre ene a

0 1
  C       19.845     586.851     456.167
  O       20.291     586.162     457.316
  H       19.783     587.920     456.396
  H       18.855     586.492     455.876
  H       20.550     586.710     455.340
  P       20.475     584.573     457.179
  C       18.643     582.896     457.961
  O       18.999     583.953     457.071
  C       18.213     583.472     459.303
  O       17.015     584.298     459.129
  C       17.829     582.425     460.339
  O       18.956     581.828     460.944
  C       16.990     583.253     461.304
  O       17.809     583.954     462.245
  C       16.274     584.247     460.370
  N       11.703     583.457     462.512
  C       12.862     583.932     463.003
  N       14.034     584.128     462.360
  C       13.926     583.794     461.059
  C       12.804     583.296     460.420
  C       11.651     583.132     461.197
  N       10.467     582.623     460.698
  N       13.092     583.036     459.093
  C       14.358     583.370     458.928
  N       14.894     583.848     460.104
  O       20.968     584.145     458.644
  O       21.428     584.135     456.119
  H       17.195     584.385     462.869
  H       21.935     584.021     458.641
  H       12.851     584.190     464.067
  H       14.920     583.294     458.011
  H       16.251     585.256     460.779
  H       16.310     582.620     461.866
  H       17.188     581.648     459.877
  H       19.010     584.131     459.681
  H       19.506     582.233     458.111
  H       17.831     582.319     457.514
  H        9.710     582.465     461.320
  H       10.456     582.268     459.738
  P       18.755     580.404     461.665
  C       18.902     580.413     464.279
  O       18.134     580.685     463.111
  O       20.252     579.919     461.977
  O       18.006     579.393     460.849
  H       20.317     578.946     461.889
  H       18.329     580.660     465.148
  H       19.796     581.000     464.262
  H       19.158     579.374     464.304

 6  7  8  9  10  11  12  13  14  15  25  28  32  33  34  35 0
 6-311+G(2d,p)
 ****
 36  37  40 0
 6-311+G(2d,p)
 ****
 1  2  3  4  5  16  17  18  19  20  21  22  23  24 0
 3-21G
 ****
 26  27  29  30  31  38  39 41  42  43  44  45  46  47  48 0
 3-21G
 ****


