%nproc=1
%NoSave
%Mem=1900MB
#P OB98/GEN NMR

erre ene a

0 1
  C       46.281     232.982      -7.613
  O       46.121     233.246      -6.232
  H       46.741     233.855      -8.086
  H       45.308     232.802      -8.078
  H       46.933     232.116      -7.760
  P       45.435     232.086      -5.359
  C       43.486     233.645      -4.645
  O       43.870     232.443      -5.297
  C       42.367     234.338      -5.415
  O       42.819     234.727      -6.733
  C       41.119     233.484      -5.618
  O       40.280     233.523      -4.475
  C       40.492     234.159      -6.829
  O       39.754     235.341      -6.454
  C       41.726     234.529      -7.667
  N       43.511     233.816     -12.338
  C       43.318     234.982     -11.626
  N       43.592     236.136     -12.277
  N       42.885     235.019     -10.394
  C       42.621     233.792      -9.885
  C       42.785     232.563     -10.484
  C       43.295     232.538     -11.840
  O       43.550     231.535     -12.499
  N       42.425     231.546      -9.636
  C       42.008     232.158      -8.545
  N       42.091     233.523      -8.653
  O       45.938     232.394      -3.869
  O       45.764     230.692      -5.774
  H       39.070     235.098      -5.806
  H       46.004     231.553      -3.376
  H       43.863     233.854     -13.279
  H       41.638     231.663      -7.658
  H       41.587     235.469      -8.214
  H       39.786     233.501      -7.339
  H       43.601     236.186     -13.286
  H       41.391     232.453      -5.876
  H       43.431     236.997     -11.769
  H       42.117     235.261      -4.875
  H       44.353     234.312      -4.591
  H       43.153     233.412      -3.627
  P       40.230     232.216      -3.544
  C       37.671     232.195      -4.015
  O       38.875     231.444      -3.919
  O       39.922     232.811      -2.089
  O       41.474     231.388      -3.564
  H       40.139     232.147      -1.405
  H       36.863     231.542      -4.270
  H       37.777     232.944      -4.772
  H       37.467     232.664      -3.075

 6  7  8  9  10  11  12  13  14  15  26  29  33  34 0
 6-311+G(2d,p)
 ****
 36  38  39  40  41 0
 6-311+G(2d,p)
 ****
 1  2  3  4  5  16  17  18  19  20  21  22  23  24  25 0
 3-21G
 ****
 27  28  30  31  32  35  37  42  43  44  45  46  47 0
 3-21G
 ****
 48  49 0
 3-21G
 ****


