%nproc=1
%NoSave
%Mem=1900MB
#P OB98/GEN NMR

erre ene a

0 1
  C     -391.111     531.922     967.349
  O     -390.185     531.369     966.440
  H     -390.769     531.700     968.365
  H     -392.102     531.469     967.203
  H     -391.184     533.005     967.228
  P     -390.354     531.689     964.873
  C     -389.023     532.999     963.089
  O     -389.034     532.468     964.417
  C     -387.774     533.846     962.873
  O     -387.792     534.991     963.761
  C     -386.473     533.120     963.185
  O     -386.134     532.204     962.138
  C     -385.523     534.301     963.334
  O     -385.068     534.774     962.065
  C     -386.427     535.345     964.023
  N     -386.158     535.430     965.466
  C     -384.909     535.892     965.838
  O     -384.036     536.227     965.024
  N     -384.643     535.903     967.179
  C     -385.438     535.369     968.151
  O     -385.078     535.175     969.295
  C     -386.785     534.962     967.713
  C     -387.072     534.993     966.405
  O     -391.646     532.329     964.475
  O     -390.176     530.255     964.175
  H     -391.057     529.902     963.931
  H     -384.698     533.992     961.606
  H     -383.719     536.190     967.456
  H     -387.488     534.588     968.475
  H     -388.056     534.659     966.053
  H     -386.268     536.341     963.575
  H     -384.643     534.011     963.926
  H     -386.552     532.591     964.132
  H     -387.792     534.224     961.824
  H     -389.925     533.617     962.951
  H     -389.061     532.162     962.375
  P     -384.783     531.357     962.232
  C     -383.880     529.114     961.325
  O     -385.025     529.938     961.501
  O     -384.184     531.251     963.612
  O     -383.770     532.087     961.238
  H     -382.928     532.260     961.691
  H     -384.165     528.208     960.833
  H     -383.456     528.883     962.280
  H     -383.157     529.631     960.730

 6  7  8  9  10  11  12  13  14  15  16  27  31  32  33  34  35 0
 6-311+G(2d,p)
 ****
 36  37 0
 6-311+G(2d,p)
 ****
 1  2  3  4  5  17  18  19  20  21  22  23  24  25 0
 3-21G
 ****
 26  28  29  30  38  39  40  41  42  43  44  45 0
 3-21G
 ****


