%nproc=1
%NoSave
%Mem=1900MB
#P OB98/GEN NMR

erre ene a

0 1
  C     -685.970     866.471    -756.572
  O     -685.525     867.290    -757.631
  H     -685.740     865.428    -756.816
  H     -687.043     866.563    -756.439
  H     -685.448     866.735    -755.639
  P     -685.904     868.851    -757.624
  C     -683.445     869.522    -757.894
  O     -684.589     869.590    -757.064
  C     -682.239     870.214    -757.289
  O     -682.514     871.640    -757.151
  C     -681.863     869.682    -755.887
  O     -680.449     869.479    -755.821
  C     -682.264     870.817    -754.938
  O     -681.539     870.787    -753.719
  C     -682.030     872.037    -755.852
  N     -682.732     873.237    -755.383
  C     -682.004     874.078    -754.503
  O     -680.849     873.763    -754.156
  N     -682.604     875.200    -754.027
  C     -683.839     875.454    -754.328
  N     -684.384     876.588    -753.806
  C     -684.653     874.583    -755.197
  C     -684.035     873.505    -755.687
  O     -687.174     869.182    -756.900
  O     -685.923     869.272    -759.172
  H     -681.904     870.058    -753.165
  H     -686.443     870.098    -759.287
  H     -685.681     874.833    -755.407
  H     -684.558     872.804    -756.328
  H     -680.965     872.270    -755.921
  H     -683.341     870.727    -754.711
  H     -682.373     868.753    -755.629
  H     -681.387     870.136    -757.974
  H     -683.786     877.171    -753.223
  H     -683.690     869.976    -758.870
  H     -685.323     876.888    -753.988
  H     -683.193     868.449    -758.054
  P     -679.970     867.945    -755.725
  C     -678.356     868.014    -757.758
  O     -679.549     867.460    -757.206
  O     -681.340     867.156    -755.447
  O     -678.958     867.696    -754.649
  H     -681.411     866.935    -754.497
  H     -678.195     867.611    -758.736
  H     -677.525     867.769    -757.130
  H     -678.453     869.078    -757.822

 6  7  8  9  10  11  12  13  14  15  16  26  30  31  32  33  35 0
 6-311+G(2d,p)
 ****
 37  38 0
 6-311+G(2d,p)
 ****
 1  2  3  4  5  17  18  19  20  21  22  23  24  25 0
 3-21G
 ****
 27  28  29  34  36  39  40  41  42  43  44  45  46 0
 3-21G
 ****


