%nproc=1
%NoSave
%Mem=1900MB
#P OB98/GEN NMR

erre ene a

0 1
  C        9.962    -303.302    -141.762
  O       10.032    -302.314    -140.755
  H        9.899    -304.282    -141.284
  H       10.856    -303.276    -142.392
  H        9.068    -303.157    -142.376
  P       10.248    -300.785    -141.199
  C        7.925    -300.142    -140.239
  O        8.754    -300.215    -141.391
  C        7.792    -298.692    -139.779
  O        7.362    -297.838    -140.859
  C        6.764    -298.463    -138.675
  O        7.191    -298.915    -137.400
  C        6.635    -296.950    -138.742
  O        7.778    -296.340    -138.120
  C        6.645    -296.715    -140.274
  N        5.302    -296.611    -140.844
  C        4.633    -295.397    -140.656
  O        5.171    -294.475    -140.039
  N        3.354    -295.263    -141.144
  C        2.786    -296.260    -141.748
  N        1.501    -296.092    -142.167
  C        3.460    -297.552    -141.980
  C        4.697    -297.660    -141.508
  O       11.172    -300.556    -142.350
  O       10.706    -300.040    -139.857
  H        7.732    -295.387    -138.308
  H       10.863    -299.091    -140.083
  H        2.937    -298.355    -142.482
  H        5.250    -298.587    -141.621
  H        7.209    -295.807    -140.525
  H        5.745    -296.569    -138.230
  H        5.799    -298.908    -138.942
  H        8.791    -298.347    -139.474
  H        1.055    -295.205    -141.949
  H        8.374    -300.765    -139.456
  H        0.905    -296.884    -142.383
  H        6.928    -300.524    -140.470
  P        6.081    -299.502    -136.400
  C        7.200    -301.856    -136.454
  O        6.025    -301.087    -136.651
  O        4.712    -298.969    -137.030
  O        6.237    -299.118    -134.960
  H        4.434    -298.133    -136.615
  H        6.992    -302.885    -136.662
  H        7.526    -301.756    -135.440
  H        7.969    -301.507    -137.111

 6  7  8  9  10  11  12  13  14  15  16  26  30  31  32  33  35 0
 6-311+G(2d,p)
 ****
 37  38 0
 6-311+G(2d,p)
 ****
 1  2  3  4  5  17  18  19  20  21  22  23  24  25 0
 3-21G
 ****
 27  28  29  34  36  39  40  41  42  43  44  45  46 0
 3-21G
 ****


