%nproc=1
%NoSave
%Mem=1900MB
#P OB98/GEN NMR

erre ene a

0 1
  C      243.832     133.321      47.356
  O      244.835     133.950      46.583
  H      243.100     132.870      46.682
  H      243.325     134.057      47.986
  H      244.271     132.537      47.979
  P      245.977     134.728      47.399
  C      245.171     137.000      46.448
  O      246.252     136.092      46.598
  C      245.640     138.433      46.686
  O      244.560     139.367      46.468
  C      246.171     138.695      48.091
  O      247.530     138.305      48.201
  C      245.981     140.201      48.202
  O      247.043     140.909      47.528
  C      244.644     140.410      47.478
  N      241.725     143.097      50.600
  C      242.896     143.443      49.956
  N      243.380     144.681      50.201
  N      243.547     142.644      49.152
  C      242.981     141.419      49.046
  C      241.826     140.954      49.633
  C      241.088     141.868      50.477
  O      240.004     141.650      51.009
  N      241.569     139.658      49.265
  C      242.583     139.331      48.487
  N      243.470     140.364      48.327
  O      247.295     133.863      47.112
  O      245.735     134.872      48.862
  H      246.857     140.928      46.573
  H      247.837     133.840      47.924
  H      241.253     143.763      51.184
  H      242.715     138.369      48.009
  H      244.610     141.371      46.951
  H      246.001     140.533      49.241
  H      243.098     145.215      51.010
  H      245.553     138.195      48.846
  H      244.276     144.905      49.787
  H      246.410     138.655      45.936
  H      244.392     136.747      47.175
  H      244.761     136.908      45.438
  P      248.081     137.875      49.642
  C      249.611     139.974      49.590
  O      249.507     138.581      49.857
  O      248.453     136.331      49.436
  O      247.105     138.046      50.758
  H      247.784     135.769      49.868
  H      250.613     140.299      49.777
  H      248.938     140.510      50.225
  H      249.361     140.161      48.567

 6  7  8  9  10  11  12  13  14  15  26  29  33  34 0
 6-311+G(2d,p)
 ****
 36  38  39  40  41 0
 6-311+G(2d,p)
 ****
 1  2  3  4  5  16  17  18  19  20  21  22  23  24  25 0
 3-21G
 ****
 27  28  30  31  32  35  37  42  43  44  45  46  47 0
 3-21G
 ****
 48  49 0
 3-21G
 ****


