%nproc=1
%NoSave
%Mem=1900MB
#P OB98/GEN NMR

erre ene a

0 1
  C     -202.911      50.810     254.978
  O     -203.838      50.390     255.960
  P     -204.387      51.440     257.037
  C     -202.815      50.483     258.831
  O     -203.244      51.652     258.141
  C     -201.629      50.804     259.737
  O     -200.431      50.991     258.951
  C     -201.795      52.089     260.540
  O     -202.665      51.890     261.636
  C     -200.346      52.387     260.923
  O     -199.956      51.607     262.069
  C     -199.587      51.921     259.669
  N     -195.819      55.137     258.441
  C     -195.960      54.256     259.457
  N     -197.014      53.459     259.741
  C     -198.005      53.659     258.854
  C     -198.024      54.546     257.788
  C     -196.853      55.299     257.572
  N     -196.677      56.151     256.507
  N     -199.235      54.483     257.126
  C     -199.935      53.583     257.789
  N     -199.210      53.014     258.796
  O     -205.746      51.144     257.581
  O     -204.387      52.833     256.246
  H     -198.992      51.715     262.175
  H     -205.297      53.184     256.207
  H     -195.107      54.174     260.126
  H     -200.958      53.299     257.565
  H     -198.671      51.377     259.931
  H     -200.186      53.438     261.174
  H     -202.166      52.892     259.890
  H     -201.464      49.949     260.405
  H     -202.523      49.730     258.089
  H     -195.750      56.526     256.371
  H     -197.297      56.054     255.707
  H     -203.646      50.085     259.425
  P     -203.457      53.136     262.261
  C     -201.581      53.257     264.008
  O     -202.395      53.987     263.106
  O     -204.725      52.804     262.978
  O     -203.736      54.078     260.993
  H     -204.576      54.555     261.121
  H     -202.155      53.021     264.910
  H     -200.722      53.876     264.285
  H     -201.221      52.334     263.548
  H     -202.657      49.982     254.350
  H     -202.028      51.179     255.456
  H     -203.347      51.587     254.385

 3  4  5  6  7  8  9  10  11  12  22  25  29  30  31  32 0
 6-311+G(2d,p)
 ****
 33  36  37 0
 6-311+G(2d,p)
 ****
 1  2  13  14  15  16  17  18  19  20  21  23  24  26 0
 3-21G
 ****
 27  28  34  35  38  39  40  41  42  43  44  45  46  47  48 0
 3-21G
 ****


