%nproc=1
%NoSave
%Mem=1900MB
#P OB98/GEN NMR

erre ene a

0 1
  C     -910.445     519.153     176.504
  O     -909.714     520.207     177.106
  H     -909.826     518.252     176.511
  H     -910.690     519.406     175.468
  H     -911.362     518.957     177.065
  P     -910.438     521.643     177.134
  C     -910.933     523.489     175.379
  O     -910.279     522.261     175.662
  C     -910.204     524.243     174.277
  O     -908.849     524.551     174.672
  C     -910.117     523.499     172.949
  O     -911.300     523.676     172.189
  C     -908.905     524.169     172.314
  O     -909.265     525.433     171.721
  C     -907.978     524.373     173.521
  N     -903.537     522.382     172.168
  C     -904.227     523.455     171.648
  N     -903.663     524.089     170.589
  N     -905.375     523.885     172.113
  C     -905.844     523.129     173.132
  C     -905.264     522.039     173.740
  C     -903.965     521.619     173.247
  O     -903.266     520.722     173.720
  N     -906.043     521.550     174.759
  C     -907.112     522.327     174.742
  N     -907.044     523.293     173.773
  O     -909.450     522.540     178.020
  O     -911.820     521.654     177.692
  H     -908.460     525.925     171.496
  H     -909.981     523.144     178.576
  H     -902.641     522.121     171.790
  H     -907.956     522.233     175.418
  H     -907.381     525.287     173.427
  H     -908.490     523.560     171.506
  H     -902.956     523.642     170.022
  H     -909.901     522.433     173.112
  H     -904.208     524.825     170.160
  H     -910.719     525.206     174.137
  H     -910.955     524.094     176.290
  H     -911.963     523.282     175.075
  P     -911.688     522.535     171.127
  C     -911.445     522.183     168.569
  O     -911.100     522.972     169.694
  O     -913.274     522.743     170.956
  O     -911.373     521.140     171.560
  H     -913.749     522.025     171.424
  H     -910.985     522.591     167.693
  H     -912.508     522.182     168.447
  H     -911.102     521.180     168.718

 6  7  8  9  10  11  12  13  14  15  26  29  33  34 0
 6-311+G(2d,p)
 ****
 36  38  39  40  41 0
 6-311+G(2d,p)
 ****
 1  2  3  4  5  16  17  18  19  20  21  22  23  24  25 0
 3-21G
 ****
 27  28  30  31  32  35  37  42  43  44  45  46  47 0
 3-21G
 ****
 48  49 0
 3-21G
 ****


