%nproc=1
%NoSave
%Mem=1900MB
#P OB98/GEN NMR

erre ene a

0 1
  C      434.934    -380.662    -421.885
  O      434.964    -381.015    -420.518
  P      435.400    -379.946    -419.405
  C      437.415    -378.371    -419.083
  O      436.805    -379.355    -419.916
  C      438.919    -378.624    -418.957
  O      439.548    -378.604    -420.257
  C      439.656    -377.584    -418.121
  O      439.437    -377.808    -416.744
  C      441.094    -377.806    -418.583
  O      441.698    -378.909    -417.887
  C      440.903    -378.147    -420.081
  N      441.209    -377.016    -420.951
  C      442.213    -377.232    -421.901
  O      442.804    -378.314    -421.953
  N      442.557    -376.200    -422.743
  C      441.966    -375.050    -422.623
  N      442.361    -374.063    -423.479
  C      440.927    -374.778    -421.611
  C      440.604    -375.790    -420.816
  O      435.389    -380.443    -417.999
  O      434.386    -378.730    -419.653
  H      441.081    -379.666    -417.994
  H      433.479    -378.940    -419.323
  H      440.475    -373.794    -421.546
  H      439.854    -375.673    -420.044
  H      441.553    -378.987    -420.364
  H      441.721    -376.931    -418.407
  H      439.333    -376.580    -418.413
  H      439.060    -379.627    -418.528
  H      443.099    -374.288    -424.136
  H      436.955    -378.421    -418.089
  H      441.997    -373.123    -423.449
  H      437.224    -377.369    -419.497
  P      439.148    -376.567    -415.768
  C      440.439    -374.531    -414.885
  O      440.518    -375.775    -415.563
  O      438.399    -376.896    -414.514
  O      438.289    -375.567    -416.686
  H      437.540    -375.227    -416.170
  H      441.435    -374.265    -414.522
  H      439.749    -374.602    -414.031
  H      440.088    -373.761    -415.574
  H      434.620    -381.505    -422.464
  H      435.912    -380.359    -422.197
  H      434.247    -379.854    -422.030

 3  4  5  6  7  8  9  10  11  12  13  23  27  28  29  30  32 0
 6-311+G(2d,p)
 ****
 34  35 0
 6-311+G(2d,p)
 ****
 1  2  14  15  16  17  18  19  20  21  22  24  25  26 0
 3-21G
 ****
 31  33  36  37  38  39  40  41  42  43  44  45  46 0
 3-21G
 ****


