%nproc=1
%NoSave
%Mem=1900MB
#P OB98/GEN NMR

erre ene a

0 1
  C      366.854    -261.947     154.201
  O      366.727    -262.184     155.607
  P      365.823    -263.416     156.085
  C      363.502    -262.311     155.686
  O      364.416    -263.329     155.316
  C      362.170    -262.502     154.956
  O      362.269    -262.154     153.555
  C      361.653    -263.936     154.990
  O      360.964    -264.221     156.200
  C      360.671    -263.922     153.828
  O      359.430    -263.318     154.246
  C      361.386    -263.027     152.811
  N      361.127    -266.471     149.116
  C      360.127    -265.920     149.893
  N      358.867    -266.350     149.642
  N      360.338    -265.037     150.830
  C      361.640    -264.686     150.952
  C      362.720    -265.161     150.245
  C      362.476    -266.152     149.223
  O      363.324    -266.682     148.510
  N      363.887    -264.576     150.664
  C      363.512    -263.736     151.612
  N      362.160    -263.779     151.834
  O      365.428    -263.008     157.584
  O      366.509    -264.738     156.034
  H      359.635    -262.389     154.478
  H      365.270    -263.811     158.115
  H      360.909    -267.152     148.405
  H      364.180    -263.082     152.154
  H      360.691    -262.393     152.251
  H      360.429    -264.929     153.473
  H      358.627    -266.992     148.907
  H      362.459    -264.652     154.795
  H      358.115    -265.934     150.183
  H      361.422    -261.844     155.425
  H      363.912    -261.324     155.457
  H      363.368    -262.331     156.774
  P      361.761    -265.014     157.346
  C      360.881    -267.234     156.322
  O      361.997    -266.493     156.772
  O      360.650    -265.207     158.481
  O      362.968    -264.313     157.866
  H      361.070    -265.209     159.364
  H      361.244    -268.137     155.828
  H      360.291    -266.652     155.609
  H      360.255    -267.525     157.171
  H      367.483    -261.097     154.038
  H      365.887    -261.760     153.782
  H      367.286    -262.806     153.732

 3  4  5  6  7  8  9  10  11  12  23  26  30  31 0
 6-311+G(2d,p)
 ****
 33  35  36  37  38 0
 6-311+G(2d,p)
 ****
 1  2  13  14  15  16  17  18  19  20  21  22  24  25 0
 3-21G
 ****
 27  28  29  32  34  39  40  41  42  43  44  45  46  47  48  49 0
 3-21G
 ****


