%nproc=1
%NoSave
%Mem=1900MB
#P OB98/GEN NMR

erre ene a

0 1
  C      107.811     103.490     -36.616
  O      108.324     103.233     -37.909
  H      107.277     104.444     -36.634
  H      108.631     103.558     -35.897
  H      107.117     102.699     -36.317
  P      108.998     101.801     -38.149
  C      111.282     100.711     -37.447
  O      110.517     101.895     -37.631
  C      112.714     100.938     -37.928
  O      112.747     101.283     -39.327
  C      113.414     102.103     -37.250
  O      113.745     101.836     -35.905
  C      114.621     102.269     -38.162
  O      115.628     101.290     -37.871
  C      113.989     102.006     -39.552
  N      113.771     103.232     -40.307
  C      114.876     103.712     -41.021
  O      115.944     103.099     -40.997
  N      114.748     104.887     -41.719
  C      113.613     105.513     -41.727
  N      113.555     106.676     -42.430
  C      112.417     105.029     -41.010
  C      112.567     103.899     -40.323
  O      109.170     101.757     -39.738
  O      108.252     100.640     -37.576
  H      115.224     100.418     -38.049
  H      109.643     102.524     -40.101
  H      111.489     105.581     -41.051
  H      111.741     103.475     -39.769
  H      114.633     101.347     -40.149
  H      115.088     103.249     -38.052
  H      112.803     103.011     -37.332
  H      113.271     100.000     -37.793
  H      114.400     106.988     -42.892
  H      110.827      99.866     -37.974
  H      112.736     107.266     -42.480
  H      111.276     100.476     -36.379
  P      113.274     102.826     -34.737
  C      113.617     105.359     -34.426
  O      114.201     104.132     -34.852
  O      113.222     102.222     -33.374
  O      111.860     103.368     -35.262
  H      111.895     103.840     -36.113
  H      114.324     106.152     -34.549
  H      113.341     105.284     -33.395
  H      112.747     105.563     -35.014

 6  7  8  9  10  11  12  13  14  15  16  26  30  31  32  33  35 0
 6-311+G(2d,p)
 ****
 37  38 0
 6-311+G(2d,p)
 ****
 1  2  3  4  5  17  18  19  20  21  22  23  24  25 0
 3-21G
 ****
 27  28  29  34  36  39  40  41  42  43  44  45  46 0
 3-21G
 ****


