%nproc=1
%NoSave
%Mem=1900MB
#P OB98/GEN NMR

erre ene a

0 1
  C     -338.200     288.359    1072.234
  O     -337.783     287.948    1070.937
  P     -338.651     288.116    1069.603
  C     -337.146     289.958    1068.494
  O     -337.686     288.636    1068.438
  C     -336.690     290.473    1067.113
  O     -335.482     289.781    1066.719
  C     -337.739     290.161    1066.047
  O     -338.856     291.016    1065.867
  C     -336.935     289.912    1064.770
  O     -336.812     291.095    1063.972
  C     -335.565     289.476    1065.301
  N     -334.841     285.741    1061.880
  C     -335.197     287.059    1061.666
  N     -335.425     287.424    1060.389
  N     -335.319     287.942    1062.633
  C     -335.141     287.415    1063.867
  C     -334.815     286.131    1064.213
  C     -334.619     285.177    1063.133
  O     -334.299     283.989    1063.272
  N     -334.729     285.964    1065.566
  C     -335.043     287.149    1066.055
  N     -335.292     288.080    1065.060
  O     -339.965     288.822    1069.768
  O     -338.971     286.585    1069.177
  H     -336.531     291.817    1064.553
  H     -339.848     286.596    1068.752
  H     -334.738     285.112    1061.099
  H     -335.084     287.395    1067.111
  H     -334.758     290.050    1064.814
  H     -337.420     289.161    1064.140
  H     -335.469     286.771    1059.620
  H     -338.185     289.183    1066.310
  H     -335.900     288.338    1060.252
  H     -336.421     291.539    1067.164
  H     -336.306     289.920    1069.183
  H     -337.883     290.646    1068.921
  P     -340.395     290.573    1065.785
  C     -340.996     291.600    1068.057
  O     -341.259     291.603    1066.672
  O     -340.459     289.224    1066.653
  O     -340.910     290.337    1064.395
  H     -341.278     288.734    1066.457
  H     -341.818     292.093    1068.581
  H     -340.075     292.164    1068.261
  H     -340.890     290.567    1068.442
  H     -337.433     288.131    1072.944
  H     -339.098     287.842    1072.500
  H     -338.382     289.413    1072.233

 3  4  5  6  7  8  9  10  11  12  23  26  30  31 0
 6-311+G(2d,p)
 ****
 33  35  36  37  38 0
 6-311+G(2d,p)
 ****
 1  2  13  14  15  16  17  18  19  20  21  22  24  25 0
 3-21G
 ****
 27  28  29  32  34  39  40  41  42  43  44  45  46  47  48  49 0
 3-21G
 ****


