%nproc=1
%NoSave
%Mem=1900MB
#P OB98/GEN NMR

erre ene a

0 1
  C     1349.208    -111.080    -221.014
  O     1349.730    -110.186    -221.987
  P     1349.417    -108.603    -221.954
  C     1347.306    -108.994    -223.396
  O     1348.572    -108.332    -223.282
  C     1346.364    -108.162    -224.273
  O     1346.029    -106.939    -223.576
  C     1346.939    -107.729    -225.623
  O     1346.840    -108.690    -226.660
  C     1345.995    -106.549    -225.941
  O     1344.744    -107.049    -226.451
  C     1345.829    -105.910    -224.559
  N     1346.499    -100.838    -224.878
  C     1345.417    -101.637    -225.126
  N     1345.329    -102.971    -225.052
  C     1346.477    -103.487    -224.594
  C     1347.642    -102.821    -224.267
  C     1347.634    -101.423    -224.414
  N     1348.718    -100.607    -224.126
  N     1348.628    -103.707    -223.834
  C     1348.052    -104.893    -223.877
  N     1346.758    -104.807    -224.340
  O     1350.605    -107.742    -221.713
  O     1348.312    -108.471    -220.795
  H     1344.942    -107.575    -227.234
  H     1348.247    -107.523    -220.505
  H     1344.536    -101.123    -225.501
  H     1348.532    -105.821    -223.626
  H     1344.811    -105.511    -224.411
  H     1346.420    -105.883    -226.719
  H     1347.952    -107.344    -225.528
  H     1345.437    -108.736    -224.413
  H     1346.879    -109.076    -222.393
  H     1348.565     -99.605    -224.133
  H     1349.504    -101.036    -223.626
  H     1347.464    -109.984    -223.789
  P     1348.156    -109.516    -227.024
  C     1349.506    -107.322    -227.583
  O     1348.987    -108.574    -228.043
  O     1347.921    -110.905    -227.508
  O     1349.014    -109.437    -225.673
  H     1349.335    -108.549    -225.424
  H     1350.172    -106.928    -228.355
  H     1350.083    -107.470    -226.664
  H     1348.686    -106.638    -227.406
  H     1349.541    -112.074    -221.228
  H     1348.139    -111.049    -221.038
  H     1349.551    -110.790    -220.043

 3  4  5  6  7  8  9  10  11  12  22  25  29  30  31  32 0
 6-311+G(2d,p)
 ****
 33  36  37 0
 6-311+G(2d,p)
 ****
 1  2  13  14  15  16  17  18  19  20  21  23  24  26 0
 3-21G
 ****
 27  28  34  35  38  39  40  41  42  43  44  45  46  47  48 0
 3-21G
 ****


