%nproc=1
%NoSave
%Mem=1900MB
#P OB98/GEN NMR

erre ene a

0 1
  C       14.759      -7.859    -283.435
  O       16.147      -8.021    -283.650
  H       14.363      -7.172    -284.188
  H       14.575      -7.432    -282.441
  H       14.248      -8.821    -283.530
  P       16.929      -8.971    -282.616
  C       18.954     -10.571    -282.846
  O       18.043      -9.703    -283.511
  C       19.922     -11.197    -283.848
  O       19.271     -12.252    -284.577
  C       20.466     -10.225    -284.891
  O       21.564      -9.496    -284.370
  C       20.900     -11.189    -285.984
  O       22.191     -11.738    -285.653
  C       19.827     -12.290    -285.917
  N       18.470     -12.697    -290.852
  C       19.683     -12.720    -290.253
  N       19.972     -12.550    -288.943
  C       18.856     -12.352    -288.225
  C       17.553     -12.300    -288.707
  C       17.374     -12.490    -290.086
  N       16.137     -12.466    -290.699
  N       16.657     -12.075    -287.677
  C       17.404     -12.049    -286.591
  N       18.743     -12.171    -286.871
  O       16.071      -9.856    -281.776
  O       17.790      -7.892    -281.803
  H       22.771     -10.988    -285.419
  H       18.146      -7.214    -282.407
  H       20.530     -12.890    -290.908
  H       17.026     -11.960    -285.576
  H       20.263     -13.292    -286.062
  H       21.002     -10.705    -286.959
  H       19.678      -9.569    -285.283
  H       20.746     -11.652    -283.278
  H       18.405     -11.360    -282.315
  H       16.125     -12.418    -291.703
  H       15.346     -12.183    -290.145
  H       19.499      -9.973    -282.107
  P       22.064      -8.140    -285.068
  C       22.523      -5.771    -284.173
  O       22.412      -7.154    -283.849
  O       21.134      -7.593    -286.095
  O       23.505      -8.504    -285.656
  H       23.771      -7.836    -286.320
  H       22.756      -5.215    -283.289
  H       21.596      -5.424    -284.579
  H       23.301      -5.635    -284.895

 6  7  8  9  10  11  12  13  14  15  25  28  32  33  34  35 0
 6-311+G(2d,p)
 ****
 36  39  40 0
 6-311+G(2d,p)
 ****
 1  2  3  4  5  16  17  18  19  20  21  22  23  24 0
 3-21G
 ****
 26  27  29  30  31  37  38  41  42  43  44  45  46  47 0
 3-21G
 ****
 48 0
 3-21G
 ****


