%nproc=1
%NoSave
%Mem=1900MB
#P OB98/GEN NMR

erre ene a

0 1
  C     -345.995    -460.062    -896.366
  O     -346.790    -458.926    -896.676
  H     -345.351    -460.288    -897.216
  H     -346.624    -460.933    -896.176
  H     -345.369    -459.859    -895.496
  P     -347.928    -458.493    -895.636
  C     -348.413    -456.747    -897.496
  O     -348.387    -457.021    -896.096
  C     -349.431    -455.651    -897.796
  O     -350.682    -455.925    -897.126
  C     -348.996    -454.271    -897.306
  O     -348.010    -453.725    -898.146
  C     -350.318    -453.548    -897.266
  O     -350.694    -453.095    -898.576
  C     -351.275    -454.662    -896.766
  N     -351.518    -454.573    -895.336
  C     -352.482    -453.631    -894.926
  O     -353.056    -452.932    -895.766
  N     -352.733    -453.496    -893.576
  C     -352.117    -454.252    -892.726
  N     -352.417    -454.060    -891.416
  C     -351.105    -455.267    -893.106
  C     -350.866    -455.378    -894.416
  O     -347.603    -458.614    -894.186
  O     -349.180    -459.407    -896.046
  H     -350.010    -452.428    -898.836
  H     -349.167    -460.247    -895.556
  H     -350.626    -455.871    -892.356
  H     -350.141    -456.094    -894.776
  H     -352.239    -454.595    -897.286
  H     -350.285    -452.670    -896.616
  H     -348.619    -454.343    -896.266
  H     -349.615    -455.639    -898.876
  H     -353.087    -453.346    -891.176
  H     -348.702    -457.675    -897.996
  H     -352.056    -454.638    -890.666
  H     -347.427    -456.452    -897.846
  P     -346.602    -453.222    -897.556
  C     -346.411    -451.221    -899.186
  O     -345.865    -452.478    -898.776
  O     -345.791    -454.258    -896.846
  O     -347.025    -451.991    -896.606
  H     -347.449    -452.322    -895.766
  H     -345.836    -450.831    -900.000
  H     -346.380    -450.534    -898.366
  H     -347.425    -451.358    -899.499

 6  7  8  9  10  11  12  13  14  15  16  26  30  31  32  33  35 0
 6-311+G(2d,p)
 ****
 37  38 0
 6-311+G(2d,p)
 ****
 1  2  3  4  5  17  18  19  20  21  22  23  24  25 0
 3-21G
 ****
 27  28  29  34  36  39  40  41  42  43  44  45  46 0
 3-21G
 ****


