%nproc=1
%NoSave
%Mem=1900MB
#P OB98/GEN NMR

erre ene a

0 1
  C      240.687     751.850     265.182
  O      240.853     752.990     266.035
  P      239.585     753.393     266.951
  C      241.244     754.440     268.674
  O      240.051     754.593     267.904
  C      241.932     755.780     268.875
  O      242.432     756.300     267.627
  C      241.015     756.880     269.419
  O      240.842     756.760     270.830
  C      241.816     758.124     269.075
  O      242.832     758.346     270.101
  C      242.488     757.742     267.735
  N      242.826     761.035     263.909
  C      243.734     760.735     264.887
  N      244.942     761.378     264.812
  N      243.524     759.863     265.840
  C      242.301     759.283     265.768
  C      241.305     759.511     264.831
  C      241.559     760.474     263.801
  O      240.770     760.812     262.922
  N      240.214     758.715     265.070
  C      240.542     757.996     266.125
  N      241.807     758.308     266.598
  O      239.466     752.149     267.965
  O      238.321     753.611     266.177
  H      243.373     759.115     269.801
  H      238.549     752.047     268.270
  H      243.055     761.710     263.183
  H      239.935     757.239     266.586
  H      243.539     758.044     267.718
  H      241.207     759.032     269.036
  H      245.201     761.995     264.072
  H      240.071     756.896     268.882
  H      245.629     761.127     265.512
  H      242.777     755.626     269.558
  H      241.917     753.753     268.174
  H      240.973     753.971     269.632
  P      239.352     756.421     271.355
  C      240.662     755.413     273.370
  O      239.528     756.124     272.914
  O      239.079     754.983     270.717
  O      238.322     757.410     270.969
  H      238.131     754.846     270.580
  H      241.573     755.770     272.857
  H      240.525     754.349     273.165
  H      240.778     755.570     274.445
  H      241.588     751.684     264.629
  H      239.879     752.027     264.503
  H      240.470     750.988     265.777

 3  4  5  6  7  8  9  10  11  12  23  26  30  31  33  0
 6-311+G(2d,p)
 ****
 35  36  37  38 0
 6-311+G(2d,p)
 ****
 1  2  13  14  15  16  17  18  19  20  21  22  24  25  27  28  29 0
 3-21G
 ****
 32  34  39  40  41  42  43  44  45  46  47  48  49 0
 3-21G
 ****


