%nproc=1
%NoSave
%Mem=1900MB
#P OB98/GEN NMR

erre ene a

0 1
  C      -68.297    -111.199       8.881
  O      -69.465    -111.468       8.134
  H      -68.429    -111.587       9.894
  H      -68.145    -110.119       8.939
  H      -67.423    -111.676       8.430
  P      -69.359    -111.351       6.538
  C      -69.084    -113.898       6.118
  O      -68.492    -112.610       6.042
  C      -69.036    -114.588       4.755
  O      -67.644    -114.893       4.437
  C      -69.829    -115.904       4.688
  O      -70.427    -116.018       3.391
  C      -68.742    -116.957       4.803
  O      -69.139    -118.207       4.253
  C      -67.608    -116.277       4.044
  N      -64.486    -119.913       2.558
  C      -65.612    -119.395       1.952
  N      -66.011    -119.972       0.799
  N      -66.298    -118.394       2.440
  C      -65.780    -117.897       3.589
  C      -64.678    -118.322       4.289
  C      -63.936    -119.442       3.749
  O      -62.944    -119.960       4.249
  N      -64.519    -117.595       5.443
  C      -65.535    -116.749       5.447
  N      -66.328    -116.896       4.344
  O      -68.366    -110.110       6.344
  O      -70.652    -111.147       5.825
  H      -69.989    -118.467       4.664
  H      -68.881    -109.292       6.219
  H      -64.004    -120.695       2.150
  H      -65.749    -116.033       6.227
  H      -67.740    -116.329       2.956
  H      -68.477    -117.109       5.857
  H      -65.518    -120.725       0.346
  H      -70.599    -115.998       5.460
  H      -66.813    -119.576       0.323
  H      -69.391    -113.884       3.993
  H      -70.129    -113.795       6.428
  H      -68.553    -114.495       6.866
  P      -72.025    -115.949       3.289
  C      -72.430    -113.378       3.264
  O      -72.525    -114.596       3.989
  O      -72.502    -117.087       4.309
  O      -72.555    -116.190       1.915
  H      -73.315    -117.509       3.977
  H      -72.802    -112.575       3.866
  H      -73.010    -113.450       2.368
  H      -71.407    -113.191       3.013

 6  7  8  9  10  11  12  13  14  15  26  29  33  34 0
 6-311+G(2d,p)
 ****
 36  38  39  40  41 0
 6-311+G(2d,p)
 ****
 1  2  3  4  5  16  17  18  19  20  21  22  23  24  25 0
 3-21G
 ****
 27  28  30  31  32  35  37  42  43  44  45  46  47 0
 3-21G
 ****
 48  49 0
 3-21G
 ****


