%nproc=1
%NoSave
%Mem=1900MB
#P OB98/GEN NMR

erre ene a

0 1
  C       97.431    -147.060      41.493
  O       96.718    -148.011      42.291
  P       97.234    -148.467      43.739
  C       98.963    -150.038      42.656
  O       98.743    -149.001      43.608
  C      100.384    -150.604      42.758
  O      100.640    -151.110      44.084
  C      100.676    -151.757      41.802
  O      100.928    -151.273      40.496
  C      101.868    -152.417      42.489
  O      103.081    -151.712      42.178
  C      101.516    -152.249      43.973
  N      102.381    -156.769      46.204
  C      103.214    -155.799      45.775
  N      102.907    -154.622      45.184
  C      101.577    -154.484      45.075
  C      100.602    -155.387      45.464
  C      101.048    -156.584      46.053
  N      100.194    -157.576      46.475
  N       99.344    -154.907      45.168
  C       99.557    -153.722      44.627
  N      100.889    -153.422      44.549
  O       96.313    -149.405      44.452
  O       97.396    -147.100      44.563
  H      103.769    -152.032      42.790
  H       97.270    -147.273      45.514
  H      104.275    -155.993      45.924
  H       98.781    -153.050      44.281
  H      102.402    -152.020      44.575
  H      102.008    -153.459      42.184
  H       99.832    -152.456      41.791
  H      101.087    -149.779      42.583
  H       98.805    -149.627      41.652
  H      100.595    -158.418      46.859
  H       99.200    -157.466      46.325
  H       98.233    -150.833      42.833
  P       99.839    -151.471      39.342
  C      101.254    -153.435      38.493
  O       99.955    -152.988      38.839
  O       99.848    -150.440      38.264
  O       98.446    -151.473      40.135
  H       97.744    -151.124      39.550
  H      101.506    -153.083      37.490
  H      101.261    -154.529      38.499
  H      101.996    -153.074      39.209
  H       96.910    -146.905      40.572
  H       98.414    -147.431      41.289
  H       97.503    -146.133      42.022

 3  4  5  6  7  8  9  10  11  12  22  25  29  30  31  32 0
 6-311+G(2d,p)
 ****
 33  36  37 0
 6-311+G(2d,p)
 ****
 1  2  13  14  15  16  17  18  19  20  21  23  24  26 0
 3-21G
 ****
 27  28  34  35  38  39  40  41  42  43  44  45  46  47  48 0
 3-21G
 ****


