%nproc=1
%NoSave
%Mem=1900MB
#P OB98/GEN NMR

erre ene a

0 1
  C      407.135    -216.555    -284.303
  O      408.086    -217.064    -283.383
  P      407.827    -218.436    -282.595
  C      405.926    -217.375    -281.221
  O      407.210    -217.990    -281.183
  C      405.558    -216.833    -279.843
  O      405.387    -217.954    -278.939
  C      406.611    -215.946    -279.177
  O      406.569    -214.584    -279.570
  C      406.194    -216.058    -277.715
  O      405.064    -215.205    -277.463
  C      405.778    -217.531    -277.611
  N      407.077    -221.092    -274.176
  C      405.909    -220.456    -274.426
  N      405.649    -219.504    -275.347
  C      406.740    -219.254    -276.086
  C      407.997    -219.827    -275.958
  C      408.149    -220.788    -274.948
  N      409.331    -221.452    -274.713
  N      408.873    -219.297    -276.887
  C      408.148    -218.436    -277.575
  N      406.855    -218.381    -277.133
  O      409.004    -219.346    -282.536
  O      406.573    -219.089    -283.346
  H      404.705    -215.462    -276.589
  H      406.503    -220.038    -283.114
  H      405.072    -220.746    -273.793
  H      408.517    -217.832    -278.393
  H      404.915    -217.679    -276.959
  H      406.986    -215.761    -277.022
  H      407.623    -216.362    -279.295
  H      404.599    -216.310    -279.921
  H      405.192    -218.134    -281.516
  H      409.314    -222.221    -274.056
  H      410.082    -221.346    -275.385
  H      405.922    -216.585    -281.973
  P      407.721    -214.071    -280.571
  C      409.767    -213.906    -278.946
  O      408.751    -213.241    -279.658
  O      407.220    -213.362    -281.782
  O      408.525    -215.411    -280.903
  H      409.011    -215.804    -280.159
  H      410.447    -213.159    -278.529
  H      410.336    -214.566    -279.600
  H      409.333    -214.486    -278.124
  H      407.496    -215.637    -284.718
  H      406.209    -216.378    -283.797
  H      406.983    -217.266    -285.088

 3  4  5  6  7  8  9  10  11  12  22  25  29  30  31  32 0
 6-311+G(2d,p)
 ****
 33  36  37 0
 6-311+G(2d,p)
 ****
 1  2  13  14  15  16  17  18  19  20  21  23  24  26 0
 3-21G
 ****
 27  28  34  35  38  39  40  41  42  43  44  45  46  47  48 0
 3-21G
 ****


