%nproc=1
%NoSave
%Mem=1900MB
#P OB98/GEN NMR

erre ene a

0 1
  C     1042.793    -346.330     280.899
  O     1041.713    -347.241     280.804
  P     1040.797    -347.525     282.086
  C     1039.922    -349.768     281.180
  O     1040.636    -349.115     282.223
  C     1040.684    -351.001     280.710
  O     1041.960    -350.624     280.165
  C     1040.982    -352.012     281.809
  O     1039.827    -352.758     282.140
  C     1042.109    -352.812     281.176
  O     1041.577    -353.807     280.284
  C     1042.865    -351.740     280.383
  N     1047.967    -351.764     280.296
  C     1047.050    -352.449     279.575
  N     1045.702    -352.414     279.684
  C     1045.332    -351.585     280.677
  C     1046.154    -350.850     281.519
  C     1047.537    -350.944     281.283
  N     1048.478    -350.203     281.965
  N     1045.402    -350.134     282.434
  C     1044.148    -350.449     282.153
  N     1044.055    -351.269     281.065
  O     1039.523    -346.750     282.150
  O     1041.746    -347.151     283.320
  H     1040.948    -354.353     280.795
  H     1041.333    -346.431     283.833
  H     1047.445    -353.099     278.802
  H     1043.281    -350.097     282.693
  H     1043.171    -352.100     279.395
  H     1042.727    -353.331     281.917
  H     1041.371    -351.488     282.689
  H     1040.104    -351.473     279.901
  H     1039.807    -349.060     280.351
  H     1049.427    -350.236     281.618
  H     1048.163    -349.380     282.477
  H     1038.922    -350.048     281.539
  P     1039.262    -352.727     283.631
  C     1037.430    -354.438     283.095
  O     1038.562    -354.143     283.893
  O     1038.437    -351.528     283.990
  O     1040.582    -352.816     284.548
  H     1040.438    -352.323     285.376
  H     1036.560    -353.898     283.471
  H     1037.242    -355.518     283.140
  H     1037.611    -354.160     282.049
  H     1043.290    -346.266     279.953
  H     1043.483    -346.671     281.642
  H     1042.422    -345.365     281.173

 3  4  5  6  7  8  9  10  11  12  22  25  29  30  31  32 0
 6-311+G(2d,p)
 ****
 33  36  37 0
 6-311+G(2d,p)
 ****
 1  2  13  14  15  16  17  18  19  20  21  23  24  26 0
 3-21G
 ****
 27  28  34  35  38  39  40  41  42  43  44  45  46  47  48 0
 3-21G
 ****


