%nproc=1
%NoSave
%Mem=1900MB
#P OB98/GEN NMR

erre ene a

0 1
  C      543.816      71.684     -58.117
  O      544.095      71.131     -56.843
  H      543.081      72.485     -58.013
  H      544.740      72.102     -58.525
  H      543.441      70.917     -58.799
  P      542.968      70.198     -56.185
  C      544.412      68.043     -56.075
  O      543.745      69.066     -55.349
  C      545.848      67.886     -55.584
  O      546.675      68.903     -56.230
  C      546.022      68.051     -54.063
  O      546.998      67.107     -53.612
  C      546.585      69.454     -53.920
  O      547.340      69.621     -52.727
  C      547.420      69.566     -55.197
  N      550.049      72.645     -58.280
  C      549.798      71.319     -58.331
  N      549.037      70.584     -57.493
  C      548.458      71.367     -56.566
  C      548.614      72.735     -56.395
  C      549.470      73.378     -57.302
  N      549.788      74.718     -57.218
  N      547.896      73.166     -55.293
  C      547.339      72.076     -54.798
  N      547.653      70.964     -55.530
  O      542.396      69.400     -57.454
  O      541.890      70.916     -55.445
  H      546.729      69.625     -51.966
  H      541.682      69.916     -57.870
  H      550.275      70.773     -59.140
  H      546.738      72.035     -53.901
  H      548.399      69.084     -55.104
  H      545.770      70.182     -53.921
  H      545.091      67.913     -53.503
  H      546.229      66.913     -55.915
  H      544.427      68.310     -57.139
  H      550.492      75.071     -57.848
  H      549.453      75.248     -56.434
  H      543.867      67.100     -55.955
  P      547.083      66.815     -52.034
  C      546.270      64.342     -51.958
  O      547.357      65.255     -51.816
  O      545.563      66.996     -51.551
  O      548.006      67.736     -51.302
  H      545.539      67.352     -50.646
  H      546.616      63.345     -51.782
  H      545.873      64.412     -52.949
  H      545.506      64.585     -51.250

 6  7  8  9  10  11  12  13  14  15  25  28  32  33  34  35 0
 6-311+G(2d,p)
 ****
 36  39  40 0
 6-311+G(2d,p)
 ****
 1  2  3  4  5  16  17  18  19  20  21  22  23  24 0
 3-21G
 ****
 26  27  29  30  31  37  38  41  42  43  44  45  46  47 0
 3-21G
 ****
 48 0
 3-21G
 ****


