%nproc=1
%NoSave
%Mem=1900MB
#P OB98/GEN NMR

erre ene a

0 1
  C     -563.129     104.153    -126.742
  O     -563.105     105.163    -127.754
  P     -562.414     106.557    -127.344
  C     -564.480     107.656    -126.184
  O     -563.154     107.119    -126.026
  C     -564.756     108.764    -125.160
  O     -563.912     109.898    -125.425
  C     -566.217     109.267    -125.157
  O     -566.600     109.563    -123.802
  C     -566.118     110.595    -125.900
  O     -567.208     111.465    -125.575
  C     -564.748     111.062    -125.423
  N     -564.452     116.057    -126.297
  C     -565.046     115.366    -125.249
  N     -565.658     116.131    -124.313
  N     -565.028     114.068    -125.136
  C     -564.347     113.447    -126.129
  C     -563.722     114.006    -127.219
  C     -563.791     115.451    -127.362
  O     -563.332     116.105    -128.311
  N     -563.144     113.037    -128.019
  C     -563.431     111.902    -127.425
  N     -564.165     112.095    -126.281
  O     -562.886     107.558    -128.506
  O     -560.924     106.495    -127.258
  H     -567.225     111.555    -124.607
  H     -562.108     107.960    -128.942
  H     -564.518     117.060    -126.348
  H     -563.159     110.922    -127.777
  H     -564.791     111.452    -124.405
  H     -566.142     110.411    -126.976
  H     -565.660     117.136    -124.305
  H     -566.943     108.589    -125.615
  H     -566.045     115.651    -123.505
  H     -564.482     108.384    -124.162
  H     -565.221     106.845    -126.063
  H     -564.578     108.045    -127.197
  P     -567.058     108.308    -122.905
  C     -569.526     108.234    -123.740
  O     -568.257     107.610    -123.698
  O     -567.783     108.991    -121.640
  O     -565.925     107.418    -122.482
  H     -567.720     108.419    -120.866
  H     -569.481     109.262    -123.342
  H     -570.215     107.669    -123.121
  H     -569.881     108.272    -124.759
  H     -563.609     103.276    -127.124
  H     -563.669     104.513    -125.891
  H     -562.127     103.914    -126.453

 3  4  5  6  7  8  9  10  11  12  23  26  30  31  33  0
 6-311+G(2d,p)
 ****
 35  36  37  38 0
 6-311+G(2d,p)
 ****
 1  2  13  14  15  16  17  18  19  20  21  22  24  25  27  28  29 0
 3-21G
 ****
 32  34  39  40  41  42  43  44  45  46  47  48  49 0
 3-21G
 ****


