%nproc=1
%NoSave
%Mem=1900MB
#P OB98/GEN NMR

erre ene a

0 1
  C       22.231       6.452      22.804
  O       22.036       5.596      21.697
  H       21.450       6.250      23.542
  H       22.160       7.498      22.497
  H       23.204       6.263      23.265
  P       23.013       5.736      20.435
  C       24.126       3.847      19.074
  O       22.914       4.357      19.619
  C       24.026       2.328      18.895
  O       23.754       1.748      20.195
  C       22.894       1.922      17.940
  O       23.329       1.060      16.891
  C       21.813       1.401      18.879
  O       20.932       0.461      18.301
  C       22.616       0.875      20.073
  N       21.861       0.835      21.323
  C       20.875      -0.140      21.442
  O       20.606      -0.983      20.589
  N       20.176      -0.133      22.622
  C       20.357       0.731      23.659
  O       19.704       0.684      24.694
  C       21.398       1.752      23.465
  C       22.090       1.758      22.323
  O       24.403       6.182      20.740
  O       22.261       6.775      19.476
  H       20.165       0.364      18.902
  H       22.681       7.652      19.552
  H       19.467      -0.842      22.723
  H       21.561       2.462      24.264
  H       22.867       2.496      22.148
  H       22.982      -0.133      19.874
  H       21.204       2.253      19.206
  H       22.505       2.795      17.403
  H       24.996       1.947      18.559
  H       24.937       4.095      19.765
  H       24.324       4.321      18.106
  P       23.476       1.493      15.362
  C       24.783       0.560      13.289
  O       24.259       0.331      14.589
  O       23.939       2.891      15.129
  O       21.969       1.378      14.797
  H       21.875       2.071      14.113
  H       25.269      -0.327      12.939
  H       25.490       1.363      13.326
  H       23.986       0.817      12.623

 6  7  8  9  10  11  12  13  14  15  16  26  31  32  33  34  35 0
 6-311+G(2d,p)
 ****
 36  37 0
 6-311+G(2d,p)
 ****
 1  2  3  4  5  17  18  19  20  21  22  23  24  25 0
 3-21G
 ****
 27  28  29  30  38  39  40  41  42  43  44  45 0
 3-21G
 ****


