%nproc=1
%NoSave
%Mem=1900MB
#P OB98/GEN NMR

erre ene a

0 1
  C     -331.523      64.702    1031.401
  O     -330.795      63.897    1030.477
  P     -329.606      64.588    1029.655
  C     -327.669      62.870    1029.268
  O     -328.908      63.416    1028.825
  C     -327.340      61.574    1028.503
  O     -328.447      60.647    1028.604
  C     -327.144      61.788    1027.006
  O     -325.880      62.384    1026.743
  C     -327.292      60.378    1026.502
  O     -326.079      59.619    1026.690
  C     -328.396      59.823    1027.421
  N     -329.716      59.749    1026.773
  C     -330.150      58.467    1026.414
  O     -329.464      57.458    1026.602
  N     -331.375      58.398    1025.819
  C     -332.192      59.457    1025.530
  O     -333.285      59.337    1025.012
  C     -331.663      60.782    1025.888
  C     -330.463      60.870    1026.493
  O     -328.574      64.914    1030.833
  O     -330.049      65.775    1028.864
  H     -328.571      64.231    1031.545
  H     -326.282      58.708    1026.445
  H     -331.717      57.484    1025.574
  H     -332.263      61.649    1025.647
  H     -330.042      61.854    1026.741
  H     -328.129      58.815    1027.765
  H     -327.536      60.334    1025.422
  H     -327.933      62.419    1026.591
  H     -326.456      61.130    1028.945
  H     -327.717      62.640    1030.334
  H     -326.884      63.621    1029.129
  P     -325.862      63.582    1025.649
  C     -324.041      64.724    1027.159
  O     -324.465      64.351    1025.861
  O     -326.948      64.576    1026.261
  O     -326.130      63.120    1024.260
  H     -326.864      64.712    1027.218
  H     -322.971      64.917    1027.134
  H     -324.242      63.932    1027.872
  H     -324.555      65.640    1027.474
  H     -332.279      64.109    1031.872
  H     -331.981      65.517    1030.880
  H     -330.855      65.084    1032.145

 3  4  5  6  7  8  9  10  11  12  13  24  28  29  30  31  32 0
 6-311+G(2d,p)
 ****
 33  34 0
 6-311+G(2d,p)
 ****
 1  2  14  15  16  17  18  19  20  21  22  23  25  26  27 0
 3-21G
 ****
 35  36  37  38  39  40  41  42  43  44  45 0
 3-21G
 ****


