%nproc=1
%NoSave
%Mem=1900MB
#P OB98/GEN NMR

erre ene a

0 1
  C     1542.579    -357.485      85.927
  O     1541.839    -357.285      87.100
  H     1543.384    -358.206      86.132
  H     1543.032    -356.558      85.594
  H     1541.950    -357.891      85.136
  P     1540.641    -356.215      87.087
  C     1538.964    -357.917      88.074
  O     1539.257    -357.050      86.983
  C     1538.819    -359.365      87.549
  O     1540.094    -359.764      86.954
  C     1538.466    -360.345      88.688
  O     1537.333    -361.165      88.403
  C     1539.780    -361.096      88.919
  O     1539.653    -362.390      89.449
  C     1540.485    -361.022      87.545
  N     1541.925    -361.130      87.605
  C     1542.463    -362.405      87.750
  O     1541.810    -363.449      87.849
  N     1543.835    -362.456      87.815
  C     1544.698    -361.408      87.768
  O     1545.905    -361.532      87.840
  C     1544.057    -360.092      87.603
  C     1542.714    -360.009      87.555
  O     1540.784    -355.105      86.095
  O     1540.589    -355.660      88.592
  H     1539.092    -362.319      90.228
  H     1541.014    -354.778      88.612
  H     1544.226    -363.390      87.941
  H     1544.720    -359.224      87.553
  H     1542.222    -359.046      87.450
  H     1540.108    -361.818      86.891
  H     1540.374    -360.505      89.633
  H     1538.189    -359.819      89.604
  H     1538.056    -359.389      86.759
  H     1538.030    -357.586      88.509
  H     1539.760    -357.884      88.819
  P     1535.929    -361.028      89.196
  C     1534.368    -360.953      87.093
  O     1534.901    -360.289      88.231
  O     1536.021    -360.559      90.620
  O     1535.390    -362.570      89.213
  H     1534.895    -362.656      90.071
  H     1533.701    -360.295      86.576
  H     1533.835    -361.826      87.407
  H     1535.166    -361.238      86.440

 6  7  8  9  10  11  12  13  14  15  16  26  31  32  33  34  35 0
 6-311+G(2d,p)
 ****
 36  37 0
 6-311+G(2d,p)
 ****
 1  2  3  4  5  17  18  19  20  21  22  23  24  25 0
 3-21G
 ****
 27  28  29  30  38  39  40  41  42  43  44  45 0
 3-21G
 ****


