%nproc=1
%NoSave
%Mem=1900MB
#P OB98/GEN NMR

erre ene a

0 1
  C      244.480    -836.230      -1.427
  O      243.183    -836.450      -1.944
  H      245.157    -836.964      -1.862
  H      244.479    -836.342      -0.338
  H      244.825    -835.227      -1.696
  P      242.032    -835.437      -1.450
  C      240.256    -837.205      -0.722
  O      240.644    -836.214      -1.664
  C      239.938    -838.525      -1.449
  O      239.136    -838.216      -2.625
  C      241.196    -839.275      -1.940
  O      240.906    -840.684      -1.943
  C      241.303    -838.785      -3.373
  O      242.147    -839.627      -4.116
  C      239.827    -838.789      -3.755
  N      239.772    -838.946      -8.861
  C      240.007    -839.906      -7.926
  N      240.000    -839.780      -6.581
  C      239.672    -838.519      -6.231
  C      239.409    -837.443      -7.057
  C      239.477    -837.697      -8.447
  N      239.263    -836.728      -9.398
  N      239.145    -836.311      -6.314
  C      239.238    -836.702      -5.056
  N      239.555    -838.024      -4.955
  O      242.031    -834.314      -2.593
  O      242.225    -834.856      -0.092
  H      242.203    -839.343      -5.056
  H      242.618    -833.582      -2.340
  H      240.235    -840.888      -8.315
  H      239.107    -836.066      -4.190
  H      239.432    -839.808      -3.924
  H      241.725    -837.779      -3.415
  H      242.081    -839.080      -1.324
  H      239.326    -839.152      -0.793
  H      239.381    -836.853      -0.184
  H      241.078    -837.371      -0.014
  H      239.358    -836.976     -10.368
  H      239.078    -835.776      -9.101
  P      241.843    -841.669      -1.082
  C      244.069    -842.147      -2.350
  O      242.756    -842.569      -2.056
  O      240.774    -842.745      -0.536
  O      242.575    -841.046       0.062
  H      240.929    -842.906       0.418
  H      244.532    -842.854      -3.006
  H      244.633    -842.078      -1.443
  H      244.038    -841.188      -2.824

 6  7  8  9  10  11  12  13  14  15  25  28  32  33  34  35 0
 6-311+G(2d,p)
 ****
 36  37  40 0
 6-311+G(2d,p)
 ****
 1  2  3  4  5  16  17  18  19  20  21  22  23  24 0
 3-21G
 ****
 26  27  29  30  31  38  39 41  42  43  44  45  46  47  48 0
 3-21G
 ****


