%nproc=1
%NoSave
%Mem=1900MB
#P OB98/GEN NMR

erre ene a

0 1
  C     -203.341     -66.990      48.735
  O     -202.054     -66.401      48.795
  P     -201.745     -65.066      47.967
  C     -199.652     -65.991      46.726
  O     -200.173     -65.063      47.655
  C     -198.160     -66.250      46.979
  O     -197.429     -65.066      46.575
  C     -197.790     -66.494      48.438
  O     -196.507     -67.119      48.485
  C     -197.686     -65.080      48.972
  O     -196.923     -65.011      50.172
  C     -197.096     -64.311      47.762
  N     -197.642     -62.945      47.672
  C     -197.022     -61.964      48.439
  O     -196.011     -62.178      49.110
  N     -197.644     -60.748      48.477
  C     -198.830     -60.451      47.870
  O     -199.522     -59.482      48.159
  C     -199.308     -61.439      46.890
  C     -198.716     -62.636      46.856
  O     -201.916     -63.920      49.071
  O     -202.626     -64.838      46.787
  H     -196.729     -64.056      50.332
  H     -202.809     -63.530      49.015
  H     -197.274     -60.083      49.145
  H     -200.162     -61.184      46.279
  H     -199.081     -63.406      46.180
  H     -196.004     -64.232      47.836
  H     -198.694     -64.708      49.197
  H     -198.521     -67.086      48.994
  H     -197.825     -67.084      46.352
  H     -199.812     -65.612      45.712
  H     -200.194     -66.939      46.794
  P     -196.434     -68.655      48.953
  C     -195.509     -68.257      51.314
  O     -195.240     -68.745      50.013
  O     -196.404     -69.668      47.858
  O     -197.739     -68.810      49.873
  H     -197.961     -69.753      49.970
  H     -194.896     -68.807      52.032
  H     -196.563     -68.382      51.580
  H     -195.247     -67.195      51.361
  H     -203.361     -67.867      49.347
  H     -203.565     -67.256      47.723
  H     -204.070     -66.291      49.090

 3  4  5  6  7  8  9  10  11  12  13  23  28  29  30  31  32 0
 6-311+G(2d,p)
 ****
 33  34 0
 6-311+G(2d,p)
 ****
 1  2  14  15  16  17  18  19  20  21  22  24  25  26  27 0
 3-21G
 ****
 35  36  37  38  39  40  41  42  43  44  45 0
 3-21G
 ****


