%nproc=1
%NoSave
%Mem=1900MB
#P OB98/GEN NMR

erre ene a

0 1
  C       79.037      57.226     -12.997
  O       78.639      58.483     -12.442
  P       79.438      58.981     -11.137
  C       79.350      58.479      -8.585
  O       78.799      58.230      -9.871
  C       78.252      58.517      -7.524
  O       77.546      59.770      -7.555
  C       77.179      57.452      -7.699
  O       77.604      56.191      -7.206
  C       76.060      58.018      -6.835
  O       76.287      57.679      -5.455
  C       76.210      59.533      -7.048
  N       71.596      61.548      -7.630
  C       72.231      61.105      -6.486
  N       71.548      61.244      -5.329
  N       73.425      60.575      -6.477
  C       74.000      60.527      -7.702
  C       73.475      60.931      -8.907
  C       72.138      61.487      -8.907
  O       71.518      61.865      -9.896
  N       74.360      60.731      -9.934
  C       75.432      60.234      -9.349
  N       75.256      60.077      -7.995
  O       78.934      60.490     -10.963
  O       80.921      58.896     -11.266
  H       77.196      57.965      -5.236
  H       79.614      61.018     -10.505
  H       70.673      61.941      -7.580
  H       76.353      59.976      -9.854
  H       76.116      60.088      -6.108
  H       75.077      57.619      -7.101
  H       70.656      61.708      -5.253
  H       76.848      57.395      -8.743
  H       72.013      60.958      -4.475
  H       78.727      58.410      -6.539
  H       79.884      59.432      -8.589
  H       80.087      57.702      -8.358
  P       77.973      55.068      -8.291
  C       76.579      53.391      -9.696
  O       76.583      54.379      -8.685
  O       78.726      53.956      -7.420
  O       78.812      55.554      -9.424
  H       79.367      53.471      -7.973
  H       77.421      52.704      -9.581
  H       76.626      53.869     -10.678
  H       75.649      52.819      -9.626
  H       78.435      57.008     -13.854
  H       78.908      56.456     -12.265
  H       80.066      57.274     -13.286

 3  4  5  6  7  8  9  10  11  12  23  26  30  31  33  0
 6-311+G(2d,p)
 ****
 35  36  37  38 0
 6-311+G(2d,p)
 ****
 1  2  13  14  15  16  17  18  19  20  21  22  24  25  27  28  29 0
 3-21G
 ****
 32  34  39  40  41  42  43  44  45  46  47  48  49 0
 3-21G
 ****


