%nproc=1
%NoSave
%Mem=1900MB
#P OB98/GEN NMR

erre ene a

0 1
  C      128.669    -263.035     134.957
  O      128.839    -262.668     133.605
  H      128.704    -262.128     135.575
  H      129.482    -263.693     135.271
  H      127.707    -263.528     135.108
  P      128.698    -263.790     132.470
  C      131.203    -264.173     131.992
  O      130.010    -264.711     132.541
  C      132.208    -265.288     131.676
  O      133.020    -264.873     130.544
  C      133.152    -265.616     132.835
  O      133.390    -267.026     132.859
  C      134.422    -264.879     132.478
  O      135.580    -265.483     133.056
  C      134.402    -264.942     130.946
  N      139.049    -263.034     130.356
  C      138.637    -264.221     130.944
  N      139.606    -265.004     131.472
  N      137.391    -264.596     131.014
  C      136.533    -263.725     130.425
  C      136.810    -262.529     129.806
  C      138.198    -262.114     129.756
  O      138.620    -261.073     129.262
  N      135.665    -261.925     129.352
  C      134.697    -262.753     129.695
  N      135.170    -263.854     130.355
  O      128.374    -263.264     131.103
  O      127.547    -264.756     133.010
  H      135.559    -266.434     132.823
  H      126.707    -264.610     132.529
  H      140.021    -262.795     130.338
  H      133.648    -262.600     129.490
  H      134.825    -265.884     130.564
  H      134.364    -263.842     132.832
  H      140.590    -264.782     131.432
  H      132.743    -265.304     133.800
  H      139.337    -265.888     131.892
  H      131.651    -266.175     131.352
  H      131.639    -263.485     132.722
  H      130.960    -263.616     131.076
  P      133.116    -267.846     134.206
  C      135.547    -268.617     134.599
  O      134.461    -267.849     135.098
  O      132.487    -269.191     134.025
  O      132.154    -266.866     135.029
  H      131.522    -267.407     135.543
  H      136.376    -268.542     135.272
  H      135.834    -268.247     133.637
  H      135.250    -269.641     134.513

 6  7  8  9  10  11  12  13  14  15  26  29  33  34 0
 6-311+G(2d,p)
 ****
 36  38  39  40  41 0
 6-311+G(2d,p)
 ****
 1  2  3  4  5  16  17  18  19  20  21  22  23  24  25 0
 3-21G
 ****
 27  28  30  31  32  35  37  42  43  44  45  46  47 0
 3-21G
 ****
 48  49 0
 3-21G
 ****


