%nproc=1
%NoSave
%Mem=1900MB
#P OB98/GEN NMR

erre ene a

0 1
  C      287.784     390.808    -888.472
  O      288.039     389.638    -889.212
  H      287.280     390.528    -887.532
  H      287.122     391.471    -889.042
  H      288.718     391.327    -888.232
  P      288.795     389.822    -890.622
  C      288.120     390.713    -892.972
  O      287.695     390.423    -891.642
  C      287.110     391.664    -893.602
  O      287.269     393.004    -893.072
  C      287.277     391.816    -895.132
  O      286.729     390.712    -895.842
  C      286.541     393.121    -895.372
  O      285.132     392.921    -895.502
  C      286.869     393.943    -894.102
  N      287.967     398.924    -894.062
  C      286.858     398.236    -893.712
  N      286.632     396.903    -893.742
  C      287.749     396.266    -894.172
  C      288.952     396.816    -894.552
  C      289.053     398.225    -894.502
  N      290.162     398.917    -894.892
  N      289.838     395.843    -894.972
  C      289.176     394.714    -894.822
  N      287.903     394.911    -894.332
  O      288.987     388.317    -891.132
  O      290.091     390.562    -890.552
  H      285.007     392.433    -896.342
  H      289.900     388.017    -890.942
  H      286.022     398.848    -893.362
  H      289.565     393.723    -895.052
  H      285.987     394.482    -893.732
  H      286.899     393.597    -896.292
  H      288.348     391.947    -895.362
  H      286.071     391.305    -893.352
  H      288.165     389.785    -893.562
  H      289.112     391.179    -892.942
  H      290.141     399.933    -894.882
  H      290.934     398.421    -895.322
  P      287.256     390.468    -897.342
  C      288.059     392.066    -899.242
  O      287.251     391.874    -898.082
  O      286.059     389.666    -898.042
  O      288.569     389.719    -897.432
  H      286.421     389.022    -898.672
  H      287.931     393.065    -899.604
  H      287.765     391.371    -900.000
  H      289.087     391.907    -898.991

 6  7  8  9  10  11  12  13  14  15  25  28  32  33  34  35 0
 6-311+G(2d,p)
 ****
 36  37  40 0
 6-311+G(2d,p)
 ****
 1  2  3  4  5  16  17  18  19  20  21  22  23  24 0
 3-21G
 ****
 26  27  29  30  31  38  39 41  42  43  44  45  46  47  48 0
 3-21G
 ****


