%nproc=1
%NoSave
%Mem=1900MB
#P OB98/GEN NMR

erre ene a

0 1
  C      122.507    -180.801      53.911
  O      121.781    -182.010      54.024
  H      122.516    -180.477      52.868
  H      122.008    -180.036      54.512
  H      123.531    -180.925      54.274
  P      122.485    -183.343      53.475
  C      121.858    -185.864      53.532
  O      121.402    -184.523      53.626
  C      120.691    -186.842      53.675
  O      120.286    -186.870      55.076
  C      119.453    -186.476      52.837
  O      118.880    -187.686      52.328
  C      118.505    -185.873      53.866
  O      117.140    -185.985      53.478
  C      118.860    -186.678      55.109
  N      114.874    -185.683      58.108
  C      115.071    -186.614      57.153
  N      116.189    -186.846      56.433
  C      117.192    -186.041      56.834
  C      117.142    -185.051      57.806
  C      115.902    -184.869      58.444
  N      115.671    -183.877      59.373
  N      118.358    -184.403      57.888
  C      119.118    -184.973      56.974
  N      118.453    -185.967      56.311
  O      123.554    -183.667      54.628
  O      123.126    -183.227      52.134
  H      117.057    -185.721      52.541
  H      124.384    -183.192      54.444
  H      114.221    -187.248      56.923
  H      120.133    -184.687      56.730
  H      118.381    -187.664      55.131
  H      118.738    -184.810      53.997
  H      119.667    -185.792      52.012
  H      121.046    -187.847      53.426
  H      122.580    -186.050      54.334
  H      114.724    -183.756      59.705
  H      116.392    -183.197      59.552
  H      122.357    -186.013      52.571
  P      118.942    -187.919      50.744
  C      118.753    -190.075      49.286
  O      118.281    -189.344      50.411
  O      120.499    -188.165      50.468
  O      118.406    -186.777      49.943
  H      120.742    -187.820      49.589
  H      118.212    -190.995      49.206
  H      119.795    -190.284      49.408
  H      118.607    -189.496      48.398

 6  7  8  9  10  11  12  13  14  15  25  28  32  33  34  35 0
 6-311+G(2d,p)
 ****
 36  39  40 0
 6-311+G(2d,p)
 ****
 1  2  3  4  5  16  17  18  19  20  21  22  23  24 0
 3-21G
 ****
 26  27  29  30  31  37  38  41  42  43  44  45  46  47 0
 3-21G
 ****
 48 0
 3-21G
 ****


