%nproc=1
%NoSave
%Mem=1900MB
#P OB98/GEN NMR

erre ene a

0 1
  C      233.648    -145.780    -600.398
  O      233.005    -145.115    -599.330
  H      234.610    -146.183    -600.065
  H      233.018    -146.607    -600.732
  H      233.804    -145.092    -601.232
  P      233.790    -143.882    -598.664
  C      232.856    -144.303    -596.277
  O      232.932    -143.414    -597.387
  C      231.598    -144.012    -595.455
  O      230.454    -144.045    -596.350
  C      231.338    -145.006    -594.313
  O      231.270    -144.313    -593.062
  C      229.965    -145.582    -594.616
  O      229.151    -145.744    -593.450
  C      229.364    -144.577    -595.589
  N      224.420    -144.656    -596.843
  C      225.174    -143.709    -596.240
  N      226.508    -143.704    -596.032
  C      227.073    -144.814    -596.541
  C      226.437    -145.857    -597.200
  C      225.038    -145.760    -597.325
  N      224.267    -146.754    -597.889
  N      227.347    -146.830    -597.569
  C      228.505    -146.402    -597.105
  N      228.387    -145.201    -596.461
  O      233.574    -142.695    -599.717
  O      235.238    -144.125    -598.396
  H      228.948    -144.846    -593.130
  H      234.428    -142.259    -599.899
  H      224.635    -142.840    -595.873
  H      229.447    -146.941    -597.163
  H      228.872    -143.739    -595.066
  H      230.088    -146.564    -595.087
  H      232.093    -145.799    -594.251
  H      231.675    -142.989    -595.067
  H      233.734    -144.167    -595.639
  H      223.264    -146.648    -597.833
  H      224.707    -147.620    -598.153
  H      232.852    -145.336    -596.649
  P      232.250    -144.827    -591.893
  C      230.712    -144.097    -589.916
  O      231.958    -143.927    -590.590
  O      233.688    -144.312    -592.373
  O      232.219    -146.303    -591.688
  H      234.391    -144.886    -592.012
  H      230.667    -143.434    -589.077
  H      230.625    -145.108    -589.577
  H      229.910    -143.876    -590.588

 6  7  8  9  10  11  12  13  14  15  25  28  32  33  34  35 0
 6-311+G(2d,p)
 ****
 36  39  40 0
 6-311+G(2d,p)
 ****
 1  2  3  4  5  16  17  18  19  20  21  22  23  24 0
 3-21G
 ****
 26  27  29  30  31  37  38  41  42  43  44  45  46  47  48 0
 3-21G
 ****


