%nproc=1
%NoSave
%Mem=1900MB
#P OB98/GEN NMR

erre ene a

0 1
  C     -174.001    -978.905     368.702
  O     -173.126    -979.365     369.726
  P     -172.446    -980.810     369.524
  C     -173.530    -983.102     368.938
  O     -173.639    -981.874     369.633
  C     -174.854    -983.847     368.919
  O     -175.764    -983.217     368.006
  C     -174.751    -985.312     368.493
  O     -174.241    -986.099     369.545
  C     -176.201    -985.607     368.122
  O     -176.960    -986.017     369.289
  C     -176.708    -984.254     367.593
  N     -176.890    -984.248     366.145
  C     -177.507    -983.096     365.624
  O     -177.886    -982.203     366.391
  N     -177.731    -983.031     364.271
  C     -177.370    -984.017     363.512
  N     -177.598    -983.897     362.180
  C     -176.724    -985.253     364.011
  C     -176.525    -985.301     365.342
  O     -171.643    -981.015     370.883
  O     -171.585    -980.928     368.307
  H     -176.873    -985.281     369.920
  H     -170.876    -981.618     370.738
  H     -176.449    -986.042     363.343
  H     -176.067    -986.156     365.801
  H     -177.664    -983.980     368.061
  H     -176.270    -986.420     367.405
  H     -174.115    -985.402     367.609
  H     -175.297    -983.770     369.942
  H     -178.049    -983.052     361.856
  H     -172.767    -983.729     369.419
  H     -177.339    -984.600     361.488
  H     -173.191    -982.891     367.904
  P     -173.496    -987.464     369.165
  C     -174.340    -989.512     367.879
  O     -174.685    -988.476     368.774
  O     -173.041    -988.012     370.594
  O     -172.363    -987.369     368.203
  H     -172.487    -988.810     370.486
  H     -175.173    -990.209     367.819
  H     -173.459    -990.053     368.226
  H     -174.168    -989.100     366.883
  H     -174.379    -977.939     368.963
  H     -174.816    -979.590     368.595
  H     -173.466    -978.840     367.778

 3  4  5  6  7  8  9  10  11  12  13  21  23  27  28  29  30  32 0
 6-311+G(2d,p)
 ****
 34  35 0
 6-311+G(2d,p)
 ****
 1  2  14  15  16  17  18  19  20  22  24  25  26 0
 3-21G
 ****
 31  33  36  37  38  39  40  41  42  43  44  45  46 0
 3-21G
 ****


