%nproc=1
%NoSave
%Mem=1900MB
#P OB98/GEN NMR

erre ene a

0 1
  C      382.319     295.862    -928.230
  O      382.921     297.140    -928.198
  P      383.738     297.711    -929.452
  C      381.771     299.314    -929.879
  O      382.638     298.340    -930.444
  C      381.516     300.464    -930.851
  O      382.772     301.129    -931.158
  C      380.879     300.052    -932.185
  O      380.030     301.133    -932.580
  C      382.083     299.947    -933.106
  O      381.722     300.004    -934.482
  C      382.932     301.116    -932.594
  N      384.329     300.988    -932.998
  C      384.593     301.036    -934.367
  O      383.665     301.092    -935.174
  N      385.895     300.952    -934.794
  C      386.843     300.741    -933.932
  N      388.114     300.671    -934.413
  C      386.590     300.558    -932.487
  C      385.323     300.708    -932.086
  O      384.676     296.745    -930.092
  O      384.460     299.015    -928.867
  H      382.525     300.198    -935.006
  H      385.247     298.757    -928.326
  H      387.400     300.331    -931.808
  H      385.042     300.602    -931.058
  H      382.546     302.069    -932.970
  H      382.597     298.995    -932.938
  H      380.313     299.115    -932.132
  H      380.874     301.201    -930.350
  H      388.240     300.816    -935.397
  H      382.243     299.710    -928.980
  H      388.923     300.591    -933.816
  H      380.822     298.838    -929.583
  P      378.811     300.907    -933.602
  C      376.950     301.114    -931.866
  O      377.622     300.253    -932.771
  O      379.174     300.191    -934.865
  O      378.275     302.390    -933.906
  H      377.713     302.375    -934.701
  H      376.000     300.648    -931.571
  H      376.740     302.082    -932.322
  H      377.561     301.253    -930.971
  H      381.827     295.676    -927.298
  H      383.071     295.118    -928.391
  H      381.604     295.824    -929.025

 3  4  5  6  7  8  9  10  11  12  13  23  27  28  29  30  32 0
 6-311+G(2d,p)
 ****
 34  35 0
 6-311+G(2d,p)
 ****
 1  2  14  15  16  17  18  19  20  21  22  24  25  26 0
 3-21G
 ****
 31  33  36  37  38  39  40  41  42  43  44  45  46 0
 3-21G
 ****


