%nproc=1
%NoSave
%Mem=1900MB
#P OB98/GEN NMR

erre ene a

0 1
  C      384.209      68.949    -482.533
  O      385.258      67.980    -482.661
  P      385.812      67.702    -484.152
  C      384.182      65.811    -484.856
  O      385.517      66.166    -484.526
  C      383.790      64.445    -484.259
  O      384.573      63.378    -484.857
  C      383.975      64.369    -482.737
  O      382.945      63.522    -482.233
  C      385.317      63.655    -482.604
  O      385.452      63.065    -481.317
  C      385.228      62.660    -483.789
  N      386.532      62.150    -484.188
  C      386.949      60.942    -483.622
  O      386.255      60.385    -482.750
  N      388.153      60.397    -484.003
  C      388.906      61.036    -484.848
  N      390.080      60.460    -485.189
  C      388.529      62.345    -485.433
  C      387.355      62.825    -485.075
  O      387.404      67.755    -483.972
  O      385.340      68.709    -485.156
  H      384.664      62.496    -481.147
  H      387.797      68.341    -484.641
  H      389.201      62.858    -486.123
  H      386.993      63.781    -485.447
  H      384.597      61.804    -483.518
  H      386.146      64.359    -482.755
  H      383.945      65.341    -482.249
  H      382.744      64.270    -484.506
  H      390.309      59.559    -484.775
  H      384.078      65.773    -485.941
  H      390.748      60.867    -485.831
  H      383.511      66.597    -484.509
  P      381.917      64.134    -481.176
  C      383.334      63.698    -479.067
  O      382.174      63.317    -479.814
  O      380.527      63.461    -481.658
  O      381.803      65.620    -481.058
  H      379.791      63.824    -481.135
  H      383.324      63.153    -478.121
  H      383.309      64.768    -478.862
  H      384.242      63.422    -479.620
  H      383.932      69.041    -481.504
  H      383.361      68.634    -483.104
  H      384.551      69.895    -482.896

 3  4  5  6  7  8  9  10  11  12  13  21  23  27  28  29  30  32 0
 6-311+G(2d,p)
 ****
 34  35 0
 6-311+G(2d,p)
 ****
 1  2  14  15  16  17  18  19  20  22  24  25  26 0
 3-21G
 ****
 31  33  36  37  38  39  40  41  42  43  44  45  46 0
 3-21G
 ****


