%nproc=1
%NoSave
%Mem=1900MB
#P OB98/GEN NMR

erre ene a

0 1
  C       59.285       0.614       5.465
  O       58.476       0.576       6.638
  P       57.277      -0.443       6.892
  C       58.785      -2.480       7.592
  O       57.762      -1.554       7.934
  C       59.502      -2.999       8.848
  O       59.738      -1.876       9.749
  C       58.666      -4.028       9.618
  O       59.425      -5.133      10.098
  C       57.951      -3.177      10.654
  O       57.463      -3.921      11.759
  C       58.999      -2.114      10.969
  N       56.615       0.248      14.816
  C       56.889      -1.094      14.649
  N       56.462      -1.926      15.622
  N       57.513      -1.583      13.610
  C       57.816      -0.657      12.675
  C       57.584       0.699      12.718
  C       56.938       1.237      13.896
  O       56.690       2.421      14.104
  N       58.044       1.321      11.586
  C       58.534       0.343      10.852
  N       58.427      -0.879      11.475
  O       56.564      -0.929       5.675
  O       56.222       0.418       7.758
  H       56.960      -3.311      12.330
  H       55.333       0.088       7.514
  H       56.153       0.572      15.647
  H       58.988       0.463       9.875
  H       59.708      -2.447      11.729
  H       57.080      -2.723      10.164
  H       55.870      -1.634      16.383
  H       57.923      -4.495       8.962
  H       56.467      -2.920      15.389
  H       60.474      -3.409       8.555
  H       59.491      -1.931       6.961
  H       58.380      -3.302       6.999
  P       59.348      -6.665       9.654
  C       60.647      -7.044       7.476
  O       60.703      -7.042       8.890
  O       58.256      -6.703       8.486
  O       58.971      -7.612      10.745
  H       57.507      -7.273       8.753
  H       61.528      -7.564       7.090
  H       60.654      -6.014       7.108
  H       59.748      -7.556       7.124
  H       60.013       1.393       5.559
  H       58.668       0.803       4.612
  H       59.782      -0.326       5.344

 3  4  5  6  7  8  9  10  11  12  23  26  30  31 0
 6-311+G(2d,p)
 ****
 33  35  36  37  38 0
 6-311+G(2d,p)
 ****
 1  2  13  14  15  16  17  18  19  20  21  22  24  25 0
 3-21G
 ****
 27  28  29  32  34  39  40  41  42  43  44  45  46  47  48  49 0
 3-21G
 ****


