%nproc=1
%NoSave
%Mem=1900MB
#P OB98/GEN NMR

erre ene a

0 1
  C     -863.585     503.499    -131.218
  O     -862.467     502.814    -130.629
  P     -861.983     501.433    -131.279
  C     -862.613     499.860    -129.337
  O     -861.555     500.440    -130.090
  C     -862.126     498.625    -128.579
  O     -861.952     497.489    -129.467
  C     -860.778     498.824    -127.913
  O     -860.904     499.626    -126.755
  C     -860.362     497.368    -127.655
  O     -860.962     496.857    -126.460
  C     -860.926     496.656    -128.902
  N     -859.906     496.313    -129.886
  C     -859.870     494.981    -130.293
  O     -860.646     494.147    -129.802
  N     -858.953     494.611    -131.244
  C     -858.132     495.496    -131.737
  N     -857.237     495.059    -132.668
  C     -858.126     496.915    -131.318
  C     -859.020     497.237    -130.391
  O     -860.986     501.562    -132.392
  O     -863.345     500.780    -131.808
  H     -861.911     496.736    -126.670
  H     -863.150     500.233    -132.590
  H     -857.428     497.613    -131.765
  H     -859.097     498.266    -130.031
  H     -861.425     495.721    -128.601
  H     -859.266     497.284    -127.534
  H     -860.088     499.289    -128.617
  H     -862.885     498.352    -127.829
  H     -857.254     494.085    -132.928
  H     -863.439     499.594    -130.014
  H     -856.597     495.680    -133.142
  H     -863.006     500.610    -128.652
  P     -860.468     501.162    -126.867
  C     -858.083     500.604    -125.998
  O     -859.243     501.402    -125.862
  O     -861.676     501.943    -126.155
  O     -860.260     501.656    -128.264
  H     -861.810     502.799    -126.593
  H     -857.252     501.084    -125.484
  H     -857.807     500.492    -127.061
  H     -858.257     499.615    -125.561
  H     -863.781     504.398    -130.671
  H     -864.448     502.867    -131.186
  H     -863.359     503.742    -132.235

 3  4  5  6  7  8  9  10  11  12  13  23  27  28  29  30  32 0
 6-311+G(2d,p)
 ****
 34  35 0
 6-311+G(2d,p)
 ****
 1  2  14  15  16  17  18  19  20  21  22  24  25  26 0
 3-21G
 ****
 31  33  36  37  38  39  40  41  42  43  44  45  46 0
 3-21G
 ****


