%nproc=1
%NoSave
%Mem=1900MB
#P OB98/GEN NMR

erre ene a

0 1
  C      -13.934     -10.827     -14.463
  O      -13.886     -10.531     -15.844
  H      -14.142     -11.893     -14.341
  H      -14.734     -10.258     -13.985
  H      -12.979     -10.601     -13.982
  P      -13.396      -9.077     -16.306
  C      -15.469      -8.068     -17.457
  O      -14.215      -8.712     -17.634
  C      -16.349      -8.298     -18.682
  O      -15.694      -7.798     -19.867
  C      -16.649      -9.766     -18.964
  O      -17.624     -10.263     -18.068
  C      -17.093      -9.690     -20.417
  O      -18.457      -9.256     -20.513
  C      -16.130      -8.616     -20.976
  N      -14.987      -9.183     -21.690
  C      -15.275     -10.122     -22.674
  O      -16.417     -10.504     -22.924
  N      -14.198     -10.626     -23.353
  C      -12.887     -10.350     -23.091
  O      -11.954     -10.870     -23.695
  C      -12.641      -9.377     -22.018
  C      -13.685      -8.846     -21.378
  O      -11.918      -8.892     -16.409
  O      -14.036      -8.100     -15.210
  H      -18.666      -9.201     -21.466
  H      -13.359      -7.855     -14.553
  H      -14.386     -11.318     -24.060
  H      -11.614      -9.138     -21.779
  H      -13.522      -8.130     -20.579
  H      -16.665      -7.950     -21.665
  H      -17.032     -10.652     -20.926
  H      -15.729     -10.359     -18.908
  H      -17.279      -7.730     -18.547
  H      -15.298      -6.993     -17.328
  H      -15.947      -8.463     -16.556
  P      -17.563     -11.774     -17.548
  C      -20.116     -11.964     -17.538
  O      -18.931     -12.071     -16.761
  O      -16.324     -12.141     -16.801
  O      -17.714     -12.648     -18.879
  H      -16.852     -13.042     -19.117
  H      -20.966     -12.180     -16.924
  H      -20.075     -12.661     -18.349
  H      -20.199     -10.970     -17.926

 6  7  8  9  10  11  12  13  14  15  16  26  31  32  33  34  35 0
 6-311+G(2d,p)
 ****
 36  37 0
 6-311+G(2d,p)
 ****
 1  2  3  4  5  17  18  19  20  21  22  23  24  25 0
 3-21G
 ****
 27  28  29  30  38  39  40  41  42  43  44  45 0
 3-21G
 ****


