%nproc=1
%NoSave
%Mem=1900MB
#P OB98/GEN NMR

erre ene a

0 1
  C      -59.190    -401.151    -140.280
  O      -60.184    -400.166    -140.079
  H      -58.211    -400.668    -140.270
  H      -59.335    -401.638    -141.247
  H      -59.226    -401.894    -139.479
  P      -61.703    -400.681    -140.045
  C      -63.992    -399.432    -140.015
  O      -62.614    -399.394    -140.352
  C      -64.485    -398.033    -139.630
  O      -64.120    -397.776    -138.239
  C      -63.866    -396.901    -140.464
  O      -64.814    -395.821    -140.519
  C      -62.677    -396.496    -139.604
  O      -62.152    -395.256    -140.022
  C      -63.331    -396.566    -138.227
  N      -61.573    -394.038    -134.144
  C      -62.585    -393.772    -134.998
  N      -63.002    -394.499    -136.055
  C      -62.269    -395.619    -136.182
  C      -61.216    -396.029    -135.382
  C      -60.865    -395.178    -134.320
  N      -59.831    -395.442    -133.450
  N      -60.705    -397.238    -135.824
  C      -61.443    -397.549    -136.872
  N      -62.393    -396.599    -137.131
  O      -61.957    -400.968    -138.491
  O      -61.996    -401.873    -140.891
  H      -61.689    -394.809    -139.282
  H      -61.806    -401.912    -138.299
  H      -63.133    -392.851    -134.812
  H      -61.325    -398.439    -137.484
  H      -64.012    -395.724    -138.057
  H      -61.867    -397.229    -139.692
  H      -63.602    -397.206    -141.482
  H      -65.582    -398.012    -139.677
  H      -64.125    -400.120    -139.171
  H      -64.568    -399.798    -140.871
  H      -59.634    -394.774    -132.724
  H      -59.282    -396.281    -133.579
  P      -65.716    -395.634    -141.836
  C      -67.826    -394.201    -142.419
  O      -66.645    -394.341    -141.643
  O      -66.776    -396.829    -141.684
  O      -64.990    -395.732    -143.138
  H      -67.081    -397.107    -142.569
  H      -68.317    -393.286    -142.160
  H      -68.481    -395.025    -142.224
  H      -67.570    -394.187    -143.458

 6  7  8  9  10  11  12  13  14  15  25  28  32  33  34  35 0
 6-311+G(2d,p)
 ****
 36  37  40 0
 6-311+G(2d,p)
 ****
 1  2  3  4  5  16  17  18  19  20  21  22  23  24 0
 3-21G
 ****
 26  27  29  30  31  38  39 41  42  43  44  45  46  47  48 0
 3-21G
 ****


