%nproc=1
%NoSave
%Mem=1900MB
#P OB98/GEN NMR

erre ene a

0 1
  C      -50.628     -63.793    -122.777
  O      -49.923     -62.572    -122.498
  P      -49.667     -61.526    -123.692
  C      -50.352     -59.002    -123.683
  O      -49.609     -60.047    -123.075
  C      -50.327     -57.753    -122.798
  O      -51.365     -57.823    -121.793
  C      -49.034     -57.561    -122.018
  O      -47.990     -57.064    -122.838
  C      -49.476     -56.582    -120.938
  O      -49.461     -55.231    -121.431
  C      -50.920     -57.044    -120.660
  N      -51.041     -57.796    -119.415
  C      -51.014     -57.054    -118.240
  O      -50.838     -55.837    -118.215
  N      -51.160     -57.766    -117.081
  C      -51.261     -59.125    -116.981
  O      -51.371     -59.708    -115.910
  C      -51.201     -59.862    -118.252
  C      -51.090     -59.175    -119.391
  O      -51.088     -61.518    -124.437
  O      -48.574     -61.884    -124.644
  H      -50.190     -55.162    -122.079
  H      -50.961     -61.298    -125.378
  H      -51.174     -57.245    -116.219
  H      -51.254     -60.942    -118.215
  H      -51.046     -59.705    -120.338
  H      -51.590     -56.178    -120.611
  H      -48.825     -56.608    -120.059
  H      -48.739     -58.505    -121.546
  H      -50.527     -56.880    -123.432
  H      -51.388     -59.326    -123.815
  H      -49.924     -58.785    -124.666
  P      -46.630     -57.918    -122.871
  C      -44.447     -57.558    -124.264
  O      -45.565     -56.985    -123.622
  O      -47.011     -59.054    -123.933
  O      -46.228     -58.430    -121.528
  H      -47.611     -58.725    -124.624
  H      -44.681     -58.541    -124.680
  H      -43.628     -57.653    -123.545
  H      -44.131     -56.898    -125.076
  H      -50.711     -64.370    -121.880
  H      -50.092     -64.354    -123.513
  H      -51.606     -63.564    -123.146

 3  4  5  6  7  8  9  10  11  12  13  23  28  29  30  31  32 0
 6-311+G(2d,p)
 ****
 33  34 0
 6-311+G(2d,p)
 ****
 1  2  14  15  16  17  18  19  20  21  22  24  25  26 0
 3-21G
 ****
 27  35  36  37  38  39  40  41  42  43  44  45 0
 3-21G
 ****


