%nproc=1
%NoSave
%Mem=1900MB
#P OB98/GEN NMR

erre ene a

0 1
  C     -893.990    -945.519    -631.578
  O     -895.400    -945.581    -631.662
  P     -896.310    -944.437    -631.013
  C     -896.810    -943.224    -633.222
  O     -896.200    -943.132    -631.944
  C     -896.840    -941.862    -633.924
  O     -897.820    -941.011    -633.266
  C     -895.510    -941.104    -633.910
  O     -895.440    -940.371    -635.142
  C     -895.660    -940.130    -632.759
  O     -894.790    -939.016    -632.832
  C     -897.160    -939.778    -632.901
  N     -898.850    -935.547    -630.604
  C     -898.280    -935.750    -631.816
  N     -897.840    -936.907    -632.339
  C     -898.020    -937.924    -631.487
  C     -898.550    -937.865    -630.206
  C     -899.000    -936.614    -629.768
  N     -899.600    -936.394    -628.547
  N     -898.510    -939.120    -629.623
  C     -897.990    -939.904    -630.524
  N     -897.710    -939.247    -631.687
  O     -896.090    -944.190    -629.561
  O     -897.810    -944.932    -631.285
  H     -894.990    -938.517    -633.652
  H     -898.210    -945.266    -630.452
  H     -898.190    -934.868    -632.440
  H     -897.750    -940.950    -630.388
  H     -897.320    -939.055    -633.716
  H     -895.480    -940.655    -631.811
  H     -894.630    -941.746    -633.804
  H     -897.190    -942.018    -634.951
  H     -897.830    -943.586    -633.074
  H     -900.000    -935.479    -628.395
  H     -899.960    -937.195    -628.024
  H     -896.270    -943.951    -633.830
  P     -894.130    -940.484    -636.075
  C     -895.310    -942.094    -637.689
  O     -894.210    -941.897    -636.786
  O     -892.840    -940.175    -635.391
  O     -894.430    -939.443    -637.263
  H     -893.610    -939.232    -637.717
  H     -896.210    -942.345    -637.108
  H     -895.080    -942.910    -638.356
  H     -895.500    -941.194    -638.280
  H     -893.566    -946.370    -632.069
  H     -893.694    -945.516    -630.550
  H     -893.643    -944.624    -632.052

 3  4  5  6  7  8  9  10  11  12  22  25  29  30  31  32 0
 6-311+G(2d,p)
 ****
 33  36  37 0
 6-311+G(2d,p)
 ****
 1  2  13  14  15  16  17  18  19  20  21  23  24  26 0
 3-21G
 ****
 27  28  34  35  38  39  40  41  42  43  44  45  46  47  48 0
 3-21G
 ****


