%nproc=1
%NoSave
%Mem=1900MB
#P OB98/GEN NMR

erre ene a

0 1
  C     -218.440     631.702     333.198
  O     -218.870     630.989     334.352
  P     -218.726     631.726     335.772
  C     -220.443     630.155     336.922
  O     -219.096     630.618     336.873
  C     -220.613     629.137     338.047
  O     -219.720     628.018     337.847
  C     -220.298     629.667     339.438
  O     -221.387     630.383     339.995
  C     -220.073     628.368     340.197
  O     -221.340     627.775     340.538
  C     -219.347     627.508     339.155
  N     -215.481     627.232     342.492
  C     -216.820     627.244     342.666
  N     -217.789     627.333     341.723
  C     -217.247     627.453     340.496
  C     -215.903     627.490     340.173
  C     -214.992     627.362     341.234
  N     -213.630     627.319     341.051
  N     -215.739     627.621     338.809
  C     -216.958     627.652     338.327
  N     -217.908     627.545     339.297
  O     -219.985     632.712     335.795
  O     -217.441     632.453     335.978
  H     -221.793     628.402     341.135
  H     -219.823     633.450     336.415
  H     -217.170     627.169     343.691
  H     -217.203     627.740     337.269
  H     -219.659     626.458     339.196
  H     -219.527     628.515     341.130
  H     -219.378     630.258     339.437
  H     -221.638     628.753     338.004
  H     -220.696     629.679     335.972
  H     -213.057     627.044     341.836
  H     -213.277     627.214     340.104
  H     -221.110     631.006     337.080
  P     -221.038     631.750     340.758
  C     -222.851     633.154     339.530
  O     -222.397     632.599     340.750
  O     -220.101     632.517     339.713
  O     -220.376     631.559     342.090
  H     -219.511     633.144     340.178
  H     -223.907     633.410     339.640
  H     -222.754     632.436     338.715
  H     -222.287     634.056     339.301
  H     -218.592     631.098     332.328
  H     -217.401     631.938     333.291
  H     -219.004     632.607     333.107

 3  4  5  6  7  8  9  10  11  12  22  25  29  30  31  32 0
 6-311+G(2d,p)
 ****
 33  36  37 0
 6-311+G(2d,p)
 ****
 1  2  13  14  15  16  17  18  19  20  21  23  24  26 0
 3-21G
 ****
 27  28  34  35  38  39  40  41  42  43  44  45  46  47  48 0
 3-21G
 ****


