%nproc=1
%NoSave
%Mem=1900MB
#P OB98/GEN NMR

erre ene a

0 1
  C     -142.120     243.553     462.897
  O     -141.010     244.217     462.329
  P     -140.783     245.757     462.719
  C     -140.988     246.430     460.201
  O     -141.423     246.645     461.540
  C     -142.190     246.489     459.254
  O     -143.243     245.613     459.723
  C     -142.825     247.870     459.154
  O     -142.077     248.715     458.300
  C     -144.210     247.534     458.625
  O     -144.187     247.375     457.196
  C     -144.502     246.185     459.315
  N     -145.426     246.322     460.434
  C     -146.720     245.853     460.216
  O     -147.087     245.367     459.142
  N     -147.595     245.990     461.260
  C     -147.324     246.595     462.461
  O     -148.166     246.732     463.337
  C     -145.946     247.090     462.626
  C     -145.083     246.941     461.621
  O     -139.203     245.972     462.535
  O     -141.239     246.131     464.090
  H     -143.986     248.257     456.817
  H     -138.874     246.595     463.215
  H     -148.531     245.637     461.138
  H     -145.707     247.576     463.561
  H     -144.071     247.324     461.714
  H     -144.934     245.484     458.597
  H     -144.942     248.324     458.849
  H     -142.922     248.311     460.155
  H     -141.873     246.135     458.264
  H     -140.504     245.452     460.125
  H     -140.253     247.196     459.935
  P     -141.425     250.017     458.957
  C     -143.193     251.547     457.781
  O     -142.600     251.115     458.991
  O     -140.441     250.501     457.785
  O     -140.746     249.741     460.269
  H     -140.793     250.284     456.908
  H     -143.263     250.730     457.053
  H     -142.611     252.363     457.360
  H     -144.208     251.907     457.994
  H     -142.146     242.541     462.551
  H     -143.021     244.052     462.607
  H     -142.034     243.563     463.964

 3  4  5  6  7  8  9  10  11  12  13  23  28  29  30  31  32 0
 6-311+G(2d,p)
 ****
 33  34 0
 6-311+G(2d,p)
 ****
 1  2  14  15  16  17  18  19  20  21  22  24  25  26 0
 3-21G
 ****
 27  35  36  37  38  39  40  41  42  43  44  45 0
 3-21G
 ****


