%nproc=1
%NoSave
%Mem=1900MB
#P OB98/GEN NMR

erre ene a

0 1
  C     -241.235    -458.345    -371.693
  O     -241.865    -459.535    -371.259
  H     -240.278    -458.250    -371.177
  H     -241.853    -457.482    -371.445
  H     -241.058    -458.378    -372.773
  P     -243.291    -459.887    -371.912
  C     -244.759    -458.214    -370.558
  O     -244.150    -458.528    -371.799
  C     -245.796    -457.093    -370.726
  O     -246.909    -457.602    -371.503
  C     -246.348    -456.569    -369.406
  O     -246.429    -455.136    -369.453
  C     -247.732    -457.173    -369.296
  O     -248.620    -456.397    -368.499
  C     -248.127    -457.326    -370.785
  N     -249.118    -458.372    -370.983
  C     -250.438    -457.960    -371.213
  O     -250.722    -456.769    -371.224
  N     -251.413    -458.917    -371.371
  C     -251.110    -460.175    -371.249
  N     -252.114    -461.070    -371.387
  C     -249.736    -460.651    -370.952
  C     -248.805    -459.704    -370.846
  O     -243.961    -460.841    -370.814
  O     -243.237    -460.485    -373.281
  H     -248.635    -455.475    -368.879
  H     -244.747    -461.312    -371.172
  H     -249.537    -461.710    -370.839
  H     -247.768    -459.971    -370.634
  H     -248.533    -456.371    -371.160
  H     -247.659    -458.175    -368.843
  H     -245.742    -456.848    -368.540
  H     -245.340    -456.292    -371.323
  H     -253.038    -460.707    -371.574
  H     -243.977    -457.883    -369.856
  H     -252.010    -462.071    -371.277
  H     -245.242    -459.102    -370.153
  P     -245.262    -454.329    -368.695
  C     -246.841    -453.879    -366.691
  O     -245.594    -454.381    -367.122
  O     -245.526    -452.813    -369.099
  O     -243.893    -454.792    -369.066
  H     -244.934    -452.539    -369.812
  H     -246.918    -453.980    -365.629
  H     -247.629    -454.431    -367.160
  H     -246.921    -452.846    -366.958

 6  7  8  9  10  11  12  13  14  15  16  26  30  31  32  33  35 0
 6-311+G(2d,p)
 ****
 37  38 0
 6-311+G(2d,p)
 ****
 1  2  3  4  5  17  18  19  20  21  22  23  24  25 0
 3-21G
 ****
 27  28  29  34  36  39  40  41  42  43  44  45  46 0
 3-21G
 ****


