%nproc=1
%NoSave
%Mem=1900MB
#P OB98/GEN NMR

erre ene a

0 1
  C      285.820    -214.103      99.705
  O      284.837    -214.703      98.882
  H      286.634    -213.741      99.075
  H      286.219    -214.840     100.412
  H      285.392    -213.259     100.254
  P      283.542    -215.290      99.628
  C      284.450    -217.580      98.770
  O      283.317    -216.760      99.029
  C      284.034    -218.838      98.004
  O      283.225    -219.677      98.893
  C      283.173    -218.569      96.758
  O      283.410    -219.624      95.816
  C      281.767    -218.691      97.318
  O      280.816    -218.791      96.284
  C      281.963    -219.896      98.233
  N      278.483    -223.156     100.097
  C      279.452    -223.309      99.163
  N      280.345    -222.400      98.728
  C      280.194    -221.232      99.379
  C      279.261    -220.927     100.359
  C      278.373    -221.959     100.718
  N      277.382    -221.798     101.657
  N      279.411    -219.618     100.786
  C      280.416    -219.144     100.077
  N      280.913    -220.079      99.210
  O      282.341    -214.434      99.000
  O      283.568    -215.211     101.118
  H      279.908    -218.852      96.654
  H      282.130    -213.682      99.584
  H      279.508    -224.294      98.703
  H      280.815    -218.135     100.144
  H      282.044    -220.832      97.659
  H      281.501    -217.797      97.903
  H      283.392    -217.601      96.289
  H      284.931    -219.421      97.757
  H      284.910    -217.857      99.729
  H      285.179    -217.019      98.172
  H      276.770    -222.582     101.847
  H      277.273    -220.906     102.119
  P      284.512    -219.408      94.661
  C      282.914    -218.112      93.035
  O      283.748    -219.237      93.255
  O      285.133    -220.886      94.520
  O      285.575    -218.410      94.955
  H      286.055    -220.818      94.204
  H      282.493    -218.166      92.053
  H      283.492    -217.216      93.126
  H      282.127    -218.104      93.760

 6  7  8  9  10  11  12  13  14  15  25  28  32  33  34  35 0
 6-311+G(2d,p)
 ****
 36  37  40 0
 6-311+G(2d,p)
 ****
 1  2  3  4  5  16  17  18  19  20  21  22  23  24 0
 3-21G
 ****
 26  27  29  30  31  38  39 41  42  43  44  45  46  47  48 0
 3-21G
 ****


