%nproc=1
%NoSave
%Mem=1900MB
#P OB98/GEN NMR

erre ene a

0 1
  C     -422.313     121.624    -474.661
  O     -422.712     120.619    -475.571
  H     -421.830     122.431    -475.219
  H     -421.593     121.212    -473.948
  H     -423.177     122.032    -474.126
  P     -423.726     119.505    -475.018
  C     -423.026     117.390    -473.675
  O     -422.996     118.809    -473.761
  C     -422.567     116.931    -472.288
  O     -421.156     117.187    -472.111
  C     -423.274     117.640    -471.131
  O     -424.529     117.027    -470.843
  C     -422.284     117.397    -470.010
  O     -422.404     116.041    -469.528
  C     -420.933     117.578    -470.730
  N     -417.411     120.648    -468.747
  C     -417.678     119.322    -468.483
  N     -416.900     118.722    -467.546
  N     -418.623     118.630    -469.077
  C     -419.339     119.365    -469.966
  C     -419.170     120.690    -470.311
  C     -418.107     121.425    -469.660
  O     -417.820     122.608    -469.877
  N     -420.084     121.083    -471.261
  C     -420.817     120.001    -471.467
  N     -420.403     118.932    -470.705
  O     -423.679     118.379    -476.156
  O     -425.122     119.971    -474.775
  H     -423.228     115.995    -469.005
  H     -424.479     118.451    -476.709
  H     -416.672     121.138    -468.266
  H     -421.642     119.942    -472.159
  H     -420.151     116.927    -470.324
  H     -422.442     118.056    -469.153
  H     -416.169     119.201    -467.033
  H     -423.375     118.722    -471.310
  H     -417.081     117.757    -467.331
  H     -422.716     115.839    -472.222
  H     -422.357     116.968    -474.434
  H     -424.056     117.046    -473.865
  P     -425.694     117.961    -470.248
  C     -426.497     118.346    -467.812
  O     -425.396     118.164    -468.680
  O     -426.964     116.985    -470.262
  O     -425.972     119.221    -471.013
  H     -427.613     117.282    -470.933
  H     -426.144     118.467    -466.809
  H     -427.138     117.490    -467.864
  H     -427.042     119.218    -468.106

 6  7  8  9  10  11  12  13  14  15  26  29  33  34 0
 6-311+G(2d,p)
 ****
 36  38  39  40  41 0
 6-311+G(2d,p)
 ****
 1  2  3  4  5  16  17  18  19  20  21  22  23  24  25 0
 3-21G
 ****
 27  28  30  31  32  35  37  42  43  44  45  46  47 0
 3-21G
 ****
 48  49 0
 3-21G
 ****


