%nproc=1
%NoSave
%Mem=1900MB
#P OB98/GEN NMR

erre ene a

0 1
  C      776.212    -895.874     678.304
  O      776.811    -896.874     679.114
  H      775.498    -895.314     678.900
  H      775.686    -896.344     677.462
  H      776.969    -895.184     677.926
  P      778.022    -897.734     678.523
  C      779.948    -896.104     679.027
  O      779.340    -897.324     679.357
  C      780.292    -895.314     680.298
  O      779.084    -894.814     680.932
  C      780.981    -896.164     681.362
  O      782.341    -896.414     681.043
  C      780.745    -895.304     682.599
  O      781.725    -894.264     682.704
  C      779.324    -894.724     682.338
  N      778.291    -895.434     683.125
  C      777.667    -894.694     684.083
  O      777.906    -893.514     684.325
  N      776.741    -895.384     684.842
  C      776.518    -896.744     684.783
  O      775.872    -897.344     685.627
  C      777.169    -897.444     683.660
  C      778.023    -896.764     682.894
  O      778.173    -897.694     677.036
  O      777.721    -899.224     679.046
  H      777.334    -899.734     678.316
  H      782.581    -894.684     682.836
  H      776.311    -894.864     685.593
  H      776.972    -898.494     683.554
  H      778.562    -897.294     682.088
  H      779.306    -893.644     682.607
  H      780.808    -895.874     683.530
  H      780.426    -897.114     681.478
  H      780.928    -894.454     680.033
  H      779.243    -895.504     678.416
  H      780.842    -896.264     678.427
  P      783.049    -897.774     681.584
  C      782.500    -899.304     679.589
  O      783.530    -898.614     680.316
  O      782.287    -898.524     682.603
  O      784.432    -897.204     682.194
  H      784.536    -897.574     683.091
  H      782.936    -899.830     678.765
  H      781.787    -898.596     679.223
  H      782.011    -900.000     680.238

 6  7  8  9  10  11  12  13  14  15  16  27  31  32  33  34  35 0
 6-311+G(2d,p)
 ****
 36  37 0
 6-311+G(2d,p)
 ****
 1  2  3  4  5  17  18  19  20  21  22  23  24  25 0
 3-21G
 ****
 26  28  29  30  38  39  40  41  42  43  44  45 0
 3-21G
 ****


