%nproc=1
%NoSave
%Mem=1900MB
#P OB98/GEN NMR

erre ene a

0 1
  C      296.931    -433.189     -28.460
  O      296.359    -434.479     -28.469
  H      297.560    -433.079     -29.349
  H      297.558    -433.063     -27.575
  H      296.156    -432.418     -28.483
  P      295.279    -434.858     -27.347
  C      296.783    -436.607     -26.188
  O      296.089    -435.372     -26.058
  C      297.369    -437.041     -24.839
  O      297.971    -438.354     -24.999
  C      298.444    -436.096     -24.299
  O      298.323    -436.009     -22.880
  C      299.741    -436.787     -24.666
  O      300.813    -436.431     -23.793
  C      299.345    -438.262     -24.577
  N      303.966    -440.266     -25.024
  C      303.408    -439.531     -23.995
  N      304.204    -439.271     -22.933
  N      302.180    -439.085     -24.004
  C      301.492    -439.433     -25.121
  C      301.926    -440.160     -26.204
  C      303.297    -440.630     -26.186
  O      303.848    -441.270     -27.078
  N      300.935    -440.288     -27.147
  C      299.907    -439.646     -26.631
  N      300.193    -439.099     -25.407
  O      294.190    -435.777     -27.806
  O      294.694    -433.450     -26.869
  H      300.677    -436.924     -22.956
  H      293.798    -433.303     -27.230
  H      304.917    -440.575     -24.966
  H      298.938    -439.543     -27.100
  H      299.418    -438.651     -23.550
  H      300.027    -436.519     -25.691
  H      305.152    -439.606     -22.847
  H      298.370    -435.097     -24.733
  H      303.812    -438.759     -22.153
  H      296.546    -437.153     -24.123
  H      297.593    -436.469     -26.915
  H      296.093    -437.370     -26.563
  P      297.663    -434.698     -22.230
  C      299.834    -433.463     -21.607
  O      298.673    -433.463     -22.424
  O      297.138    -434.864     -20.843
  O      296.480    -434.352     -23.256
  H      295.727    -433.980     -22.754
  H      300.424    -432.598     -21.826
  H      300.408    -434.345     -21.803
  H      299.545    -433.447     -20.577

 6  7  8  9  10  11  12  13  14  15  26  29  33  34 0
 6-311+G(2d,p)
 ****
 36  38  39  40  41 0
 6-311+G(2d,p)
 ****
 1  2  3  4  5  16  17  18  19  20  21  22  23  24  25 0
 3-21G
 ****
 27  28  30  31  32  35  37  42  43  44  45  46  47 0
 3-21G
 ****
 48  49 0
 3-21G
 ****


