%nproc=1
%NoSave
%Mem=1900MB
#P OB98/GEN NMR

erre ene a

0 1
  C       93.515    -298.549    -168.383
  O       93.016    -297.580    -169.315
  P       94.070    -296.598    -170.017
  C       96.429    -297.323    -170.844
  O       95.021    -297.480    -170.961
  C       97.134    -297.947    -172.053
  O       96.711    -299.311    -172.273
  C       96.873    -297.214    -173.360
  O       97.727    -296.087    -173.516
  C       97.243    -298.286    -174.377
  O       98.676    -298.335    -174.535
  C       96.731    -299.564    -173.701
  N       93.812    -303.439    -175.136
  C       95.132    -303.422    -174.737
  N       95.772    -304.615    -174.711
  N       95.774    -302.334    -174.394
  C       95.008    -301.223    -174.453
  C       93.686    -301.108    -174.833
  C       92.993    -302.319    -175.220
  O       91.824    -302.395    -175.596
  N       93.254    -299.811    -174.769
  C       94.302    -299.137    -174.334
  N       95.397    -299.943    -174.143
  O       95.043    -296.199    -168.806
  O       93.456    -295.393    -170.653
  H       98.959    -297.435    -174.794
  H       95.430    -295.319    -168.969
  H       93.367    -304.309    -175.394
  H       94.316    -298.070    -174.140
  H       97.388    -300.424    -173.879
  H       96.821    -298.083    -175.366
  H       95.328    -305.496    -174.911
  H       95.812    -296.947    -173.461
  H       96.733    -304.623    -174.391
  H       98.216    -297.946    -171.852
  H       96.790    -297.789    -169.924
  H       96.659    -296.257    -170.749
  P       97.045    -294.636    -173.606
  C       95.290    -293.525    -172.047
  O       96.444    -294.335    -172.152
  O       95.753    -294.909    -174.512
  O       97.914    -293.575    -174.191
  H       95.539    -294.114    -175.040
  H       94.931    -293.563    -171.012
  H       94.497    -293.886    -172.708
  H       95.533    -292.487    -172.297
  H       92.701    -299.127    -168.000
  H       94.007    -298.047    -167.576
  H       94.210    -299.195    -168.878

 3  4  5  6  7  8  9  10  11  12  23  26  30  31 0
 6-311+G(2d,p)
 ****
 33  35  36  37  38 0
 6-311+G(2d,p)
 ****
 1  2  13  14  15  16  17  18  19  20  21  22  24  25 0
 3-21G
 ****
 27  28  29  32  34  39  40  41  42  43  44  45  46  47  48  49 0
 3-21G
 ****


