%nproc=1
%NoSave
%Mem=1900MB
#P OB98/GEN NMR

erre ene a

0 1
  C        0.084     -18.482     -84.003
  O        1.443     -18.118     -83.862
  H       -0.060     -18.916     -84.997
  H       -0.565     -17.608     -83.906
  H       -0.185     -19.230     -83.253
  P        1.894     -17.311     -82.554
  C        1.838     -14.831     -81.853
  O        1.831     -15.752     -82.938
  C        1.340     -13.459     -82.307
  O        2.221     -12.969     -83.354
  C       -0.090     -13.472     -82.857
  O       -0.742     -12.266     -82.451
  C        0.128     -13.483     -84.357
  O       -0.995     -12.975     -85.051
  C        1.412     -12.661     -84.505
  N        2.097     -12.969     -85.759
  C        1.480     -12.523     -86.934
  O        0.424     -11.894     -86.881
  N        2.037     -12.858     -88.143
  C        3.086     -13.620     -88.180
  N        3.563     -13.945     -89.412
  C        3.753     -14.132     -86.968
  C        3.214     -13.773     -85.803
  O        3.174     -17.746     -81.921
  O        0.656     -17.488     -81.554
  H       -0.826     -13.015     -86.015
  H        0.788     -18.278     -80.996
  H        4.621     -14.770     -87.054
  H        3.629     -14.114     -84.859
  H        1.188     -11.584     -84.480
  H        0.300     -14.514     -84.697
  H       -0.669     -14.341     -82.521
  H        1.430     -12.758     -81.465
  H        3.058     -13.586     -90.216
  H        2.868     -14.747     -81.489
  H        4.345     -14.563     -89.570
  H        1.209     -15.210     -81.043
  P       -2.008     -12.310     -81.463
  C       -4.563     -12.204     -81.589
  O       -3.356     -12.307     -82.337
  O       -1.979     -11.297     -80.364
  O       -1.966     -13.796     -80.857
  H       -2.345     -13.786     -79.957
  H       -5.398     -12.210     -82.257
  H       -4.560     -11.291     -81.031
  H       -4.638     -13.033     -80.917

 6  7  8  9  10  11  12  13  14  15  16  26  30  31  32  33  35 0
 6-311+G(2d,p)
 ****
 37  38 0
 6-311+G(2d,p)
 ****
 1  2  3  4  5  17  18  19  20  21  22  23  24  25 0
 3-21G
 ****
 27  28  29  34  36  39  40  41  42  43  44  45  46 0
 3-21G
 ****


