%nproc=1
%NoSave
%Mem=1900MB
#P OB98/GEN NMR

erre ene a

0 1
  C      170.529     -57.421    -154.349
  O      171.085     -58.649    -154.771
  H      171.336     -56.697    -154.215
  H      170.006     -57.547    -153.397
  H      169.836     -57.043    -155.106
  P      170.068     -59.884    -154.916
  C      170.019     -59.604    -157.509
  O      169.293     -59.572    -156.289
  C      169.056     -59.699    -158.687
  O      168.503     -61.031    -158.786
  C      167.850     -58.769    -158.596
  O      168.150     -57.425    -158.927
  C      166.944     -59.416    -159.628
  O      167.416     -59.102    -160.951
  C      167.149     -60.911    -159.302
  N      166.180     -61.423    -158.328
  C      165.662     -62.700    -158.572
  O      166.012     -63.342    -159.559
  N      164.725     -63.209    -157.705
  C      164.354     -62.516    -156.673
  N      163.422     -63.071    -155.852
  C      164.882     -61.174    -156.372
  C      165.781     -60.694    -157.229
  O      168.954     -59.579    -153.808
  O      170.671     -61.245    -154.830
  H      166.817     -59.552    -161.575
  H      168.196     -60.204    -153.911
  H      164.533     -60.629    -155.506
  H      166.216     -59.714    -157.072
  H      167.088     -61.524    -160.209
  H      165.910     -59.075    -159.572
  H      167.367     -58.831    -157.614
  H      169.631     -59.516    -159.603
  H      163.034     -63.967    -156.118
  H      170.681     -60.477    -157.491
  H      162.961     -62.554    -155.115
  H      170.626     -58.699    -157.609
  P      167.122     -56.297    -158.428
  C      168.446     -56.210    -156.188
  O      167.178     -56.292    -156.826
  O      165.693     -56.939    -158.745
  O      167.292     -54.959    -159.077
  H      165.049     -56.250    -159.000
  H      168.312     -56.218    -155.126
  H      168.934     -55.303    -156.479
  H      169.046     -57.047    -156.478

 6  7  8  9  10  11  12  13  14  15  16  26  30  31  32  33  35 0
 6-311+G(2d,p)
 ****
 37  38 0
 6-311+G(2d,p)
 ****
 1  2  3  4  5  17  18  19  20  21  22  23  24  25 0
 3-21G
 ****
 27  28  29  34  36  39  40  41  42  43  44  45  46 0
 3-21G
 ****


