%nproc=1
%NoSave
%Mem=1900MB
#P OB98/GEN NMR

erre ene a

0 1
  C     -177.167     834.664    -343.391
  O     -176.005     835.266    -342.811
  P     -175.945     836.869    -342.854
  C     -176.388     837.026    -340.287
  O     -175.548     837.386    -341.381
  C     -175.558     836.659    -339.062
  O     -174.927     835.368    -339.191
  C     -174.418     837.650    -338.786
  O     -174.924     838.794    -338.118
  C     -173.496     836.812    -337.886
  O     -173.930     836.830    -336.515
  C     -173.664     835.393    -338.473
  N     -168.837     833.879    -338.716
  C     -169.554     834.371    -337.649
  N     -168.904     834.438    -336.467
  N     -170.801     834.739    -337.722
  C     -171.328     834.615    -338.957
  C     -170.724     834.108    -340.092
  C     -169.342     833.686    -339.992
  O     -168.663     833.216    -340.908
  N     -171.598     834.078    -341.154
  C     -172.672     834.664    -340.699
  N     -172.602     834.964    -339.360
  O     -177.477     837.302    -343.010
  O     -175.102     837.398    -343.968
  H     -173.382     836.211    -336.005
  H     -177.623     837.667    -343.898
  H     -167.868     833.596    -338.594
  H     -173.568     834.896    -341.284
  H     -173.734     834.633    -337.674
  H     -172.477     837.185    -337.912
  H     -167.947     834.164    -336.323
  H     -173.912     837.910    -339.701
  H     -169.419     834.804    -335.662
  H     -176.229     836.624    -338.202
  H     -177.026     836.192    -340.569
  H     -177.046     837.879    -340.074
  P     -174.249     840.213    -338.445
  C     -176.507     841.431    -338.850
  O     -175.311     841.350    -338.097
  O     -174.189     840.221    -340.051
  O     -172.891     840.397    -337.862
  H     -173.313     840.547    -340.360
  H     -177.316     841.842    -338.230
  H     -176.825     840.440    -339.229
  H     -176.356     842.102    -339.712
  H     -177.098     833.600    -343.305
  H     -177.231     834.935    -344.424
  H     -178.041     835.007    -342.877

 3  4  5  6  7  8  9  10  11  12  23  26  30  31 0
 6-311+G(2d,p)
 ****
 33  35  36  37  38 0
 6-311+G(2d,p)
 ****
 1  2  13  14  15  16  17  18  19  20  21  22  24  25 0
 3-21G
 ****
 27  28  29  32  34  39  40  41  42  43  44  45  46  47  48  49 0
 3-21G
 ****


