%nproc=1
%NoSave
%Mem=1900MB
#P OB98/GEN NMR

erre ene a

0 1
  C     -344.391      90.305     -26.138
  O     -344.161      90.190     -27.536
  P     -342.815      90.845     -28.120
  C     -341.781      93.224     -28.016
  O     -342.939      92.418     -27.824
  C     -342.170      94.600     -28.537
  O     -342.996      95.274     -27.569
  C     -340.995      95.534     -28.791
  O     -340.371      95.273     -30.039
  C     -341.694      96.888     -28.801
  O     -342.284      97.119     -30.093
  C     -342.790      96.702     -27.737
  N     -341.845     100.978     -25.196
  C     -342.178     100.791     -26.524
  N     -342.303     101.907     -27.274
  N     -342.369      99.616     -27.065
  C     -342.249      98.595     -26.187
  C     -341.922      98.654     -24.849
  C     -341.662      99.953     -24.274
  O     -341.300     100.175     -23.121
  N     -341.912      97.402     -24.285
  C     -342.267      96.598     -25.264
  N     -342.455      97.269     -26.449
  O     -343.026      90.753     -29.703
  O     -341.551      90.188     -27.686
  H     -341.573      97.028     -30.755
  H     -342.159      90.741     -30.153
  H     -341.726     101.904     -24.825
  H     -342.401      95.527     -25.163
  H     -343.743      97.124     -28.068
  H     -341.013      97.722     -28.608
  H     -342.302     102.838     -26.886
  H     -340.275      95.499     -27.967
  H     -342.584     101.793     -28.240
  H     -342.761      94.467     -29.453
  H     -341.123      92.739     -28.746
  H     -341.249      93.308     -27.064
  P     -338.793      95.564     -30.127
  C     -337.351      97.668     -29.631
  O     -338.639      97.140     -29.884
  O     -338.471      95.378     -31.682
  O     -337.957      94.677     -29.267
  H     -337.535      95.128     -31.807
  H     -336.584      97.145     -30.207
  H     -337.127      97.580     -28.565
  H     -337.342      98.724     -29.911
  H     -345.316      89.828     -25.888
  H     -344.439      91.339     -25.868
  H     -343.592      89.834     -25.605

 3  4  5  6  7  8  9  10  11  12  23  26  30  31  33  0
 6-311+G(2d,p)
 ****
 35  36  37  38 0
 6-311+G(2d,p)
 ****
 1  2  13  14  15  16  17  18  19  20  21  22  24  25  27  28  29 0
 3-21G
 ****
 32  34  39  40  41  42  43  44  45  46  47  48  49 0
 3-21G
 ****


