%nproc=1
%NoSave
%Mem=1900MB
#P OB98/GEN NMR

erre ene a

0 1
  C     -595.233     894.950    -182.729
  O     -595.918     896.112    -182.240
  P     -597.426     896.353    -182.773
  C     -596.439     897.549    -184.868
  O     -597.334     896.553    -184.358
  C     -596.700     897.795    -186.350
  O     -598.031     898.316    -186.574
  C     -595.754     898.821    -186.987
  O     -594.491     898.257    -187.298
  C     -596.520     899.181    -188.239
  O     -596.271     898.204    -189.271
  C     -597.993     899.097    -187.780
  N     -599.068     903.681    -189.660
  C     -598.460     902.600    -190.262
  N     -598.109     902.755    -191.559
  N     -598.219     901.470    -189.661
  C     -598.644     901.457    -188.372
  C     -599.264     902.463    -187.664
  C     -599.498     903.711    -188.338
  O     -600.009     904.717    -187.842
  N     -599.559     902.058    -186.377
  C     -599.145     900.828    -186.322
  N     -598.572     900.395    -187.505
  O     -597.772     897.807    -182.226
  O     -598.404     895.321    -182.302
  H     -596.789     898.475    -190.055
  H     -598.738     897.900    -182.098
  H     -599.233     904.532    -190.180
  H     -599.236     900.170    -185.458
  H     -598.619     898.592    -188.519
  H     -596.234     900.141    -188.665
  H     -598.345     903.560    -192.117
  H     -595.657     899.712    -186.337
  H     -597.700     901.947    -192.034
  H     -596.597     896.840    -186.878
  H     -595.404     897.220    -184.727
  H     -596.558     898.463    -184.275
  P     -593.266     898.615    -186.318
  C     -592.293     900.646    -187.628
  O     -593.025     900.192    -186.497
  O     -592.023     897.954    -187.075
  O     -593.416     898.116    -184.934
  H     -591.324     897.709    -186.413
  H     -592.596     900.121    -188.530
  H     -591.227     900.517    -187.435
  H     -592.488     901.711    -187.751
  H     -594.253     894.908    -182.303
  H     -595.156     895.003    -183.795
  H     -595.779     894.072    -182.454

 3  4  5  6  7  8  9  10  11  12  23  26  30  31  33  0
 6-311+G(2d,p)
 ****
 35  36  37  38 0
 6-311+G(2d,p)
 ****
 1  2  13  14  15  16  17  18  19  20  21  22  24  25  27  28  29 0
 3-21G
 ****
 32  34  39  40  41  42  43  44  45  46  47  48  49 0
 3-21G
 ****


