%nproc=1
%NoSave
%Mem=1900MB
#P OB98/GEN NMR

erre ene a

0 1
  C     -187.494      30.349     -24.335
  O     -187.276      29.118     -25.004
  P     -186.785      27.863     -24.139
  C     -189.147      26.797     -24.295
  O     -188.076      27.199     -23.454
  C     -189.735      25.464     -23.829
  O     -190.858      25.105     -24.676
  C     -188.738      24.303     -23.879
  O     -189.013      23.394     -22.803
  C     -189.088      23.593     -25.171
  O     -188.665      22.230     -25.150
  C     -190.603      23.787     -25.203
  N     -191.954      20.507     -28.801
  C     -191.689      20.282     -27.465
  N     -191.703      18.995     -27.058
  N     -191.439      21.235     -26.605
  C     -191.453      22.473     -27.158
  C     -191.717      22.822     -28.464
  C     -191.981      21.757     -29.406
  O     -192.195      21.886     -30.606
  N     -191.673      24.180     -28.637
  C     -191.340      24.654     -27.453
  N     -191.159      23.654     -26.533
  O     -186.022      28.553     -22.912
  O     -185.886      26.920     -24.863
  H     -189.018      21.836     -24.330
  H     -185.058      28.457     -23.024
  H     -192.131      19.738     -29.427
  H     -191.193      25.699     -27.216
  H     -191.114      23.068     -24.551
  H     -188.599      24.090     -26.016
  H     -191.823      18.212     -27.682
  H     -187.686      24.605     -23.839
  H     -191.467      18.801     -26.093
  H     -190.129      25.592     -22.814
  H     -188.776      26.685     -25.315
  H     -189.922      27.570     -24.297
  P     -187.754      22.977     -21.896
  C     -187.964      24.376     -19.712
  O     -187.412      24.263     -21.008
  O     -186.550      22.907     -22.947
  O     -187.936      21.698     -21.149
  H     -185.857      22.301     -22.626
  H     -187.152      24.376     -18.980
  H     -188.652      23.558     -19.481
  H     -188.507      25.322     -19.639
  H     -187.817      31.086     -25.040
  H     -186.583      30.671     -23.874
  H     -188.246      30.219     -23.585

 3  4  5  6  7  8  9  10  11  12  23  26  30  31 0
 6-311+G(2d,p)
 ****
 33  35  36  37  38 0
 6-311+G(2d,p)
 ****
 1  2  13  14  15  16  17  18  19  20  21  22  24  25 0
 3-21G
 ****
 27  28  29  32  34  39  40  41  42  43  44  45  46  47  48  49 0
 3-21G
 ****


