%nproc=1
%NoSave
%Mem=1900MB
#P OB98/GEN NMR

erre ene a

0 1
  C     -160.497     324.732    -936.847
  O     -161.143     325.795    -937.568
  P     -160.500     327.258    -937.578
  C     -162.045     328.516    -935.918
  O     -160.760     327.945    -936.148
  C     -162.162     328.965    -934.461
  O     -160.947     329.628    -934.008
  C     -163.264     330.001    -934.238
  O     -164.598     329.545    -934.381
  C     -162.877     330.625    -932.912
  O     -163.318     329.847    -931.802
  C     -161.329     330.603    -933.003
  N     -160.756     331.909    -933.305
  C     -159.875     332.420    -932.360
  O     -159.596     331.858    -931.302
  N     -159.325     333.654    -932.642
  C     -159.609     334.414    -933.748
  O     -159.115     335.516    -933.950
  C     -160.570     333.828    -934.705
  C     -161.087     332.626    -934.447
  O     -160.819     328.106    -938.753
  O     -158.917     326.947    -937.524
  H     -164.292     329.868    -931.798
  H     -158.472     327.575    -938.118
  H     -158.674     334.043    -931.973
  H     -160.819     334.413    -935.585
  H     -161.798     332.183    -935.133
  H     -160.894     330.252    -932.051
  H     -163.302     331.627    -932.793
  H     -163.139     330.795    -935.007
  H     -162.311     328.091    -933.825
  H     -162.814     327.781    -936.152
  H     -162.188     329.358    -936.606
  P     -165.550     329.975    -935.583
  C     -166.137     332.173    -934.321
  O     -165.759     331.562    -935.545
  O     -166.769     329.134    -935.841
  O     -164.567     329.801    -936.858
  H     -165.095     329.529    -937.618
  H     -166.238     333.236    -934.476
  H     -165.384     331.996    -933.556
  H     -167.102     331.758    -933.978
  H     -161.066     323.832    -936.952
  H     -160.430     324.993    -935.811
  H     -159.514     324.580    -937.241

 3  4  5  6  7  8  9  10  11  12  13  23  28  29  30  31  32 0
 6-311+G(2d,p)
 ****
 33  34 0
 6-311+G(2d,p)
 ****
 1  2  14  15  16  17  18  19  20  21  22  24  25  26  27 0
 3-21G
 ****
 35  36  37  38  39  40  41  42  43  44  45 0
 3-21G
 ****


