%nproc=1
%NoSave
%Mem=1900MB
#P OB98/GEN NMR

erre ene a

0 1
  C       38.943     144.935       0.597
  O       39.092     143.666       1.203
  H       39.927     145.294       0.287
  H       38.517     145.645       1.311
  H       38.298     144.859      -0.283
  P       37.755     142.995       1.785
  C       35.460     142.355       0.765
  O       36.647     143.123       0.630
  C       34.273     143.095       0.153
  O       34.003     144.315       0.876
  C       34.461     143.484      -1.310
  O       34.141     142.401      -2.168
  C       33.484     144.643      -1.435
  O       32.132     144.163      -1.602
  C       33.646     145.348      -0.081
  N       34.322     150.350       0.072
  C       33.161     149.609      -0.018
  N       32.004     150.304      -0.108
  N       33.130     148.303      -0.031
  C       34.361     147.741       0.007
  C       35.585     148.364       0.094
  C       35.599     149.809       0.162
  O       36.588     150.517       0.325
  N       36.606     147.448       0.127
  C       36.002     146.280       0.027
  N       34.639     146.405      -0.055
  O       37.260     144.046       2.888
  O       37.924     141.636       2.374
  H       31.524     144.923      -1.612
  H       36.892     143.554       3.647
  H       34.283     151.352       0.109
  H       36.503     145.321       0.018
  H       32.707     145.795       0.261
  H       33.701     145.260      -2.308
  H       31.983     151.272      -0.392
  H       35.480     143.847      -1.493
  H       31.162     149.761      -0.248
  H       33.390     142.452       0.269
  H       35.270     142.182       1.829
  H       35.594     141.393       0.263
  P       34.846     142.342      -3.605
  C       37.267     142.036      -4.491
  O       36.435     142.324      -3.376
  O       34.567     143.802      -4.199
  O       34.317     141.285      -4.514
  H       33.873     143.754      -4.883
  H       38.292     142.060      -4.186
  H       37.105     142.767      -5.255
  H       37.030     141.064      -4.871

 6  7  8  9  10  11  12  13  14  15  26  29  33  34 0
 6-311+G(2d,p)
 ****
 36  38  39  40  41 0
 6-311+G(2d,p)
 ****
 1  2  3  4  5  16  17  18  19  20  21  22  23  24  25 0
 3-21G
 ****
 27  28  30  31  32  35  37  42  43  44  45  46  47 0
 3-21G
 ****
 48  49 0
 3-21G
 ****


