%nproc=1
%NoSave
%Mem=1900MB
#P OB98/GEN NMR

erre ene a

0 1
  C       42.507    -708.912     174.806
  O       43.028    -709.409     173.567
  P       43.316    -710.984     173.464
  C       41.032    -711.483     172.287
  O       41.874    -711.683     173.410
  C       40.247    -712.759     171.987
  O       39.267    -713.012     173.025
  C       39.451    -712.713     170.688
  O       40.303    -712.848     169.560
  C       38.480    -713.867     170.905
  O       39.120    -715.119     170.613
  C       38.190    -713.761     172.416
  N       36.893    -713.165     172.709
  C       35.779    -713.929     172.359
  O       35.866    -715.027     171.814
  N       34.564    -713.374     172.637
  C       34.352    -712.143     173.196
  O       33.232    -711.701     173.435
  C       35.557    -711.363     173.494
  C       36.756    -711.899     173.244
  O       43.856    -711.293     174.937
  O       44.254    -711.334     172.359
  H       43.417    -710.762     175.622
  H       39.467    -715.045     169.696
  H       33.745    -713.916     172.401
  H       35.431    -710.375     173.914
  H       37.659    -711.339     173.456
  H       38.218    -714.757     172.876
  H       37.598    -713.793     170.264
  H       38.897    -711.763     170.624
  H       40.953    -713.598     171.969
  H       41.632    -711.219     171.412
  H       40.362    -710.641     172.491
  P       40.210    -711.699     168.442
  C       41.413    -709.716     169.656
  O       40.205    -710.304     169.228
  O       38.698    -711.867     167.945
  O       41.235    -711.824     167.362
  H       38.069    -711.988     168.673
  H       41.241    -708.657     169.842
  H       42.196    -709.824     168.899
  H       41.739    -710.193     170.589
  H       42.364    -707.854     174.734
  H       43.198    -709.126     175.595
  H       41.570    -709.385     175.014

 3  4  5  6  7  8  9  10  11  12  13  24  28  29  30  31  32 0
 6-311+G(2d,p)
 ****
 33  34 0
 6-311+G(2d,p)
 ****
 1  2  14  15  16  17  18  19  20  21  22  23  25  26  27 0
 3-21G
 ****
 35  36  37  38  39  40  41  42  43  44  45 0
 3-21G
 ****


