%nproc=1
%NoSave
%Mem=1900MB
#P OB98/GEN NMR

erre ene a

0 1
  C      208.302    -251.491    -481.940
  O      207.464    -251.489    -483.100
  P      208.136    -251.872    -484.509
  C      206.356    -253.680    -485.174
  O      206.941    -252.411    -485.436
  C      205.058    -253.854    -485.980
  O      203.994    -253.049    -485.380
  C      205.166    -253.453    -487.460
  O      204.357    -254.390    -488.200
  C      204.543    -252.077    -487.478
  O      204.077    -251.716    -488.786
  C      203.432    -252.244    -486.431
  N      202.932    -250.966    -485.917
  C      201.813    -250.431    -486.547
  O      201.290    -250.940    -487.560
  N      201.329    -249.260    -486.028
  C      201.894    -248.546    -485.015
  O      201.422    -247.496    -484.585
  C      203.133    -249.104    -484.456
  C      203.605    -250.253    -484.936
  O      208.956    -253.188    -484.111
  O      208.956    -250.762    -485.086
  H      208.500    -253.754    -483.459
  H      203.989    -250.736    -488.819
  H      200.496    -248.866    -486.457
  H      203.655    -248.527    -483.698
  H      204.529    -250.687    -484.574
  H      202.588    -252.798    -486.856
  H      205.270    -251.321    -487.147
  H      206.197    -253.470    -487.829
  H      204.759    -254.918    -485.890
  H      206.124    -253.774    -484.104
  H      207.081    -254.468    -485.402
  P      204.966    -254.979    -489.571
  C      203.541    -257.160    -489.361
  O      203.899    -256.034    -490.122
  O      206.139    -255.906    -488.997
  O      205.453    -253.942    -490.532
  H      205.850    -256.469    -488.258
  H      202.655    -257.620    -489.792
  H      203.327    -256.899    -488.317
  H      204.357    -257.899    -489.380
  H      207.724    -251.219    -481.082
  H      209.096    -250.786    -482.073
  H      208.713    -252.469    -481.798

 3  4  5  6  7  8  9  10  11  12  13  24  28  29  30  31  32 0
 6-311+G(2d,p)
 ****
 33  34 0
 6-311+G(2d,p)
 ****
 1  2  14  15  16  17  18  19  20  21  22  23  25  26  27 0
 3-21G
 ****
 35  36  37  38  39  40  41  42  43  44  45 0
 3-21G
 ****


