%nproc=1
%NoSave
%Mem=1900MB
#P OB98/GEN NMR

erre ene a

0 1
  C      -61.847     -80.689    -374.066
  O      -61.340     -81.833    -374.728
  H      -62.049     -79.915    -374.810
  H      -61.116     -80.304    -373.350
  H      -62.781     -80.930    -373.551
  P      -60.923     -83.103    -373.846
  C      -58.523     -82.148    -373.937
  O      -59.545     -82.710    -373.124
  C      -57.144     -82.505    -373.386
  O      -56.909     -81.826    -372.138
  C      -56.949     -83.995    -373.107
  O      -56.628     -84.691    -374.301
  C      -55.787     -83.944    -372.130
  O      -54.561     -83.700    -372.849
  C      -56.146     -82.713    -371.276
  N      -56.138     -84.748    -366.626
  C      -55.159     -84.763    -367.599
  N      -54.029     -85.439    -367.304
  N      -55.281     -84.174    -368.762
  C      -56.490     -83.598    -368.947
  C      -57.547     -83.532    -368.066
  C      -57.372     -84.130    -366.751
  O      -58.206     -84.118    -365.854
  N      -58.648     -82.944    -368.635
  C      -58.237     -82.605    -369.843
  N      -56.938     -82.987    -370.085
  O      -60.878     -84.417    -374.566
  O      -61.977     -83.111    -372.643
  H      -53.864     -83.548    -372.185
  H      -62.750     -83.667    -372.855
  H      -55.990     -85.226    -365.751
  H      -58.839     -82.083    -370.578
  H      -55.258     -82.165    -370.945
  H      -55.658     -84.875    -371.576
  H      -53.935     -86.033    -366.492
  H      -57.820     -84.428    -372.602
  H      -53.323     -85.510    -368.029
  H      -56.393     -82.140    -374.095
  H      -58.662     -81.063    -373.940
  H      -58.611     -82.510    -374.967
  P      -57.044     -86.228    -374.516
  C      -54.914     -87.279    -373.487
  O      -56.304     -87.037    -373.344
  O      -56.796     -86.756    -375.885
  O      -58.568     -86.296    -374.053
  H      -59.204     -86.045    -374.773
  H      -54.558     -87.824    -372.638
  H      -54.395     -86.346    -373.556
  H      -54.741     -87.850    -374.375

 6  7  8  9  10  11  12  13  14  15  26  29  33  34 0
 6-311+G(2d,p)
 ****
 36  38  39  40  41 0
 6-311+G(2d,p)
 ****
 1  2  3  4  5  16  17  18  19  20  21  22  23  24  25 0
 3-21G
 ****
 27  28  30  31  32  35  37  42  43  44  45  46  47 0
 3-21G
 ****
 48  49 0
 3-21G
 ****


