%nproc=1
%NoSave
%Mem=1900MB
#P OB98/GEN NMR

erre ene a

0 1
  C     -296.682      -4.416    -174.352
  O     -297.140      -3.126    -174.002
  H     -295.809      -4.652    -173.738
  H     -296.383      -4.435    -175.403
  H     -297.454      -5.168    -174.167
  P     -298.499      -2.584    -174.653
  C     -299.133      -1.373    -176.843
  O     -298.170      -2.174    -176.172
  C     -298.655      -1.018    -178.255
  O     -297.481      -0.170    -178.146
  C     -298.271      -2.237    -179.099
  O     -298.663      -2.009    -180.455
  C     -296.759      -2.276    -179.001
  O     -296.159      -2.920    -180.123
  C     -296.414      -0.793    -178.888
  N     -291.674       0.855    -179.494
  C     -292.742       0.873    -180.368
  N     -292.512       1.388    -181.595
  N     -293.932       0.420    -180.070
  C     -294.023      -0.046    -178.800
  C     -293.042      -0.118    -177.840
  C     -291.724       0.367    -178.193
  O     -290.734       0.362    -177.464
  N     -293.522      -0.676    -176.679
  C     -294.787      -0.938    -176.938
  N     -295.139      -0.590    -178.215
  O     -299.200      -1.525    -173.860
  O     -299.409      -3.888    -174.818
  H     -295.193      -2.955    -179.949
  H     -300.112      -3.911    -174.146
  H     -290.779       1.205    -179.781
  H     -295.487      -1.386    -176.244
  H     -296.339      -0.306    -179.868
  H     -296.462      -2.821    -178.095
  H     -291.628       1.777    -181.885
  H     -298.737      -3.156    -178.735
  H     -293.287       1.443    -182.247
  H     -299.432      -0.426    -178.746
  H     -299.281      -0.457    -176.265
  H     -300.082      -1.918    -176.894
  P     -300.000      -2.698    -181.010
  C     -300.635      -4.543    -182.682
  O     -299.598      -3.977    -181.895
  O     -300.982      -1.774    -181.648
  O     -300.624      -3.372    -179.689
  H     -301.596      -3.329    -179.745
  H     -300.253      -5.383    -183.225
  H     -301.001      -3.810    -183.370
  H     -301.432      -4.863    -182.044

 6  7  8  9  10  11  12  13  14  15  26  29  33  34 0
 6-311+G(2d,p)
 ****
 36  38  39  40  41 0
 6-311+G(2d,p)
 ****
 1  2  3  4  5  16  17  18  19  20  21  22  23  24  25 0
 3-21G
 ****
 27  28  30  31  32  35  37  42  43  44  45  46  47 0
 3-21G
 ****
 48  49 0
 3-21G
 ****


