%nproc=1
%NoSave
%Mem=1900MB
#P OB98/GEN NMR

erre ene a

0 1
  C       47.599     -60.277    -100.618
  O       47.199     -59.193     -99.776
  P       46.949     -57.777    -100.491
  C       49.182     -56.651     -99.814
  O       48.368     -57.136    -100.873
  C       50.677     -56.830    -100.113
  O       51.488     -56.224     -99.072
  C       51.105     -58.293    -100.227
  O       52.146     -58.358    -101.205
  C       51.696     -58.585     -98.863
  O       52.567     -59.713     -98.907
  C       52.373     -57.240     -98.554
  N       52.645     -57.046     -97.132
  C       53.844     -57.563     -96.637
  O       54.591     -58.214     -97.373
  N       54.156     -57.371     -95.314
  C       53.315     -56.761     -94.540
  N       53.678     -56.604     -93.237
  C       52.010     -56.249     -95.004
  C       51.749     -56.423     -96.299
  O       46.417     -56.849     -99.301
  O       45.961     -57.842    -101.612
  H       53.063     -59.748     -98.060
  H       45.602     -56.391     -99.572
  H       51.333     -55.766     -94.316
  H       50.820     -56.079     -96.733
  H       53.327     -57.156     -99.093
  H       50.899     -58.789     -98.139
  H       50.289     -58.966    -100.511
  H       50.899     -56.305    -101.049
  H       54.583     -56.961     -92.959
  H       48.937     -57.178     -98.889
  H       53.102     -56.147     -92.547
  H       48.940     -55.597     -99.635
  P       51.838     -59.084    -102.598
  C       52.692     -61.364    -101.777
  O       51.572     -60.619    -102.212
  O       53.303     -59.174    -103.247
  O       50.868     -58.447    -103.535
  H       53.243     -59.540    -104.147
  H       52.350     -62.342    -101.432
  H       53.193     -60.853    -100.950
  H       53.390     -61.510    -102.605
  H       47.732     -61.158    -100.026
  H       48.520     -60.031    -101.103
  H       46.844     -60.454    -101.355

 3  4  5  6  7  8  9  10  11  12  13  21  23  27  28  29  30  32 0
 6-311+G(2d,p)
 ****
 34  35 0
 6-311+G(2d,p)
 ****
 1  2  14  15  16  17  18  19  20  22  24  25  26 0
 3-21G
 ****
 31  33  36  37  38  39  40  41  42  43  44  45  46 0
 3-21G
 ****


