%nproc=1
%NoSave
%Mem=1900MB
#P OB98/GEN NMR

erre ene a

0 1
  C       62.896    -344.550     190.214
  O       63.570    -345.707     190.671
  H       61.944    -344.840     189.764
  H       62.697    -343.900     191.070
  H       63.503    -344.007     189.488
  P       64.227    -346.658     189.561
  C       66.106    -344.952     189.017
  O       64.996    -345.692     188.532
  C       67.165    -344.797     187.928
  O       66.633    -343.929     186.887
  C       68.492    -344.189     188.415
  O       69.567    -344.852     187.740
  C       68.414    -342.753     187.932
  O       69.697    -342.165     187.749
  C       67.625    -342.917     186.637
  N       67.799    -339.174     183.200
  C       68.326    -340.416     183.209
  N       68.184    -341.376     184.146
  C       67.353    -340.970     185.120
  C       66.734    -339.737     185.245
  C       67.000    -338.803     184.229
  N       66.525    -337.512     184.247
  N       66.003    -339.681     186.417
  C       66.194    -340.851     186.997
  N       67.008    -341.662     186.252
  O       62.947    -347.149     188.729
  O       65.025    -347.806     190.084
  H       70.183    -342.673     187.072
  H       62.574    -347.946     189.145
  H       68.952    -340.672     182.355
  H       65.804    -341.145     187.957
  H       68.253    -343.247     185.799
  H       67.858    -342.154     188.660
  H       68.638    -344.260     189.498
  H       67.336    -345.779     187.467
  H       66.548    -345.488     189.868
  H       66.853    -336.878     183.533
  H       66.023    -337.186     185.060
  H       65.765    -343.969     189.360
  P       69.747    -346.425     188.002
  C       68.320    -347.503     186.109
  O       68.429    -347.178     187.489
  O       69.651    -346.545     189.592
  O       71.035    -346.978     187.485
  H       70.212    -347.268     189.912
  H       67.388    -347.999     185.932
  H       69.126    -348.149     185.830
  H       68.363    -346.606     185.527

 6  7  8  9  10  11  12  13  14  15  25  28  32  33  34  35 0
 6-311+G(2d,p)
 ****
 36  39  40 0
 6-311+G(2d,p)
 ****
 1  2  3  4  5  16  17  18  19  20  21  22  23  24 0
 3-21G
 ****
 26  27  29  30  31  37  38  41  42  43  44  45  46  47 0
 3-21G
 ****
 48 0
 3-21G
 ****


