%nproc=1
%NoSave
%Mem=1900MB
#P OB98/GEN NMR

erre ene a

0 1
  C     -454.124    -794.532    -118.666
  O     -453.321    -794.271    -119.811
  P     -451.933    -795.010    -120.024
  C     -452.264    -794.947    -122.568
  O     -451.388    -794.642    -121.497
  C     -451.484    -795.413    -123.819
  O     -450.924    -794.247    -124.481
  C     -450.339    -796.374    -123.498
  O     -450.305    -797.344    -124.564
  C     -449.117    -795.482    -123.563
  O     -447.909    -796.215    -123.792
  C     -449.507    -794.503    -124.655
  N     -448.732    -793.277    -124.632
  C     -447.524    -793.264    -125.336
  O     -447.094    -794.303    -125.849
  N     -446.836    -792.082    -125.436
  C     -447.216    -791.060    -124.748
  N     -446.550    -789.879    -124.939
  C     -448.355    -791.099    -123.798
  C     -449.079    -792.216    -123.810
  O     -451.928    -796.470    -119.718
  O     -450.904    -794.227    -119.060
  H     -450.450    -794.874    -118.476
  H     -447.925    -796.573    -124.699
  H     -448.552    -790.271    -123.137
  H     -449.944    -792.347    -123.169
  H     -449.391    -794.966    -125.648
  H     -449.000    -794.950    -122.604
  H     -450.456    -796.888    -122.549
  H     -452.186    -795.881    -124.507
  H     -445.813    -789.881    -125.625
  H     -452.827    -794.038    -122.813
  H     -446.958    -788.984    -124.678
  H     -452.988    -795.703    -122.265
  P     -450.723    -798.855    -124.226
  C     -451.460    -799.243    -126.699
  O     -450.686    -799.700    -125.597
  O     -452.318    -798.697    -123.978
  O     -450.103    -799.484    -123.019
  H     -452.619    -799.431    -123.402
  H     -451.344    -799.974    -127.498
  H     -451.078    -798.283    -127.036
  H     -452.490    -799.159    -126.420
  H     -455.012    -793.937    -118.710
  H     -453.574    -794.287    -117.781
  H     -454.389    -795.568    -118.645

 3  4  5  6  7  8  9  10  11  12  13  24  27  28  29  30  32 0
 6-311+G(2d,p)
 ****
 34  35 0
 6-311+G(2d,p)
 ****
 1  2  14  15  16  17  18  19  20  21  22  23  25  26 0
 3-21G
 ****
 31  33  36  37  38  39  40  41  42  43  44  45  46 0
 3-21G
 ****


