%nproc=1
%NoSave
%Mem=1900MB
#P OB98/GEN NMR

erre ene a

0 1
  C       63.742     372.933    -361.726
  O       63.241     374.221    -361.416
  H       64.833     372.969    -361.692
  H       63.436     372.645    -362.735
  H       63.393     372.192    -361.000
  P       61.658     374.416    -361.257
  C       60.678     374.939    -363.589
  O       60.979     373.932    -362.632
  C       59.171     375.000    -363.866
  O       58.478     375.304    -362.625
  C       58.769     376.055    -364.899
  O       57.698     375.554    -365.697
  C       58.278     377.215    -364.046
  O       57.343     378.037    -364.739
  C       57.678     376.483    -362.844
  N       54.689     378.792    -359.484
  C       54.364     377.938    -360.535
  N       53.059     377.678    -360.723
  N       55.258     377.397    -361.325
  C       56.533     377.730    -361.001
  C       56.981     378.559    -359.995
  C       55.981     379.169    -359.144
  O       56.204     379.943    -358.219
  N       58.344     378.662    -360.006
  C       58.730     377.898    -361.013
  N       57.666     377.321    -361.657
  O       61.237     375.776    -360.798
  O       61.222     373.282    -360.217
  H       57.833     378.486    -365.457
  H       61.038     373.666    -359.343
  H       53.959     379.192    -358.917
  H       59.755     377.735    -361.323
  H       56.639     376.162    -363.022
  H       59.129     377.838    -363.741
  H       52.318     378.045    -360.127
  H       59.606     376.348    -365.539
  H       52.800     377.038    -361.452
  H       58.839     374.002    -364.173
  H       61.214     374.705    -364.516
  H       61.031     375.912    -363.219
  P       58.022     374.952    -367.150
  C       56.652     376.509    -368.667
  O       57.958     376.143    -368.228
  O       57.263     373.725    -367.521
  O       59.605     374.649    -367.063
  H       59.798     373.847    -367.590
  H       56.725     377.305    -369.378
  H       56.071     376.832    -367.828
  H       56.180     375.665    -369.124

 6  7  8  9  10  11  12  13  14  15  26  29  33  34 0
 6-311+G(2d,p)
 ****
 36  38  39  40  41 0
 6-311+G(2d,p)
 ****
 1  2  3  4  5  16  17  18  19  20  21  22  23  24  25 0
 3-21G
 ****
 27  28  30  31  32  35  37  42  43  44  45  46  47 0
 3-21G
 ****
 48  49 0
 3-21G
 ****


