%nproc=1
%NoSave
%Mem=1900MB
#P OB98/GEN NMR

erre ene a

0 1
  C      262.276    -269.430     319.823
  O      261.900    -270.765     320.096
  P      262.822    -271.695     321.016
  C      263.525    -273.372     319.197
  O      263.959    -272.350     320.091
  C      264.702    -273.907     318.385
  O      265.219    -272.891     317.497
  C      265.895    -274.330     319.233
  O      265.658    -275.541     319.921
  C      266.993    -274.394     318.179
  O      266.926    -275.627     317.444
  C      266.614    -273.206     317.264
  N      267.467    -272.044     317.481
  C      268.840    -272.243     317.291
  O      269.275    -273.369     317.037
  N      269.671    -271.165     317.401
  C      269.203    -270.020     317.791
  N      270.075    -268.970     317.824
  C      267.790    -269.810     318.156
  C      266.979    -270.850     317.959
  O      262.087    -272.664     321.885
  O      263.653    -270.653     321.908
  H      263.584    -270.918     322.847
  H      266.007    -275.708     317.124
  H      267.462    -268.856     318.544
  H      265.920    -270.784     318.182
  H      266.683    -273.501     316.212
  H      267.996    -274.326     318.612
  H      266.132    -273.536     319.958
  H      264.346    -274.748     317.779
  H      271.030    -269.145     317.547
  H      262.777    -272.946     318.518
  H      269.757    -268.003     317.791
  H      263.057    -274.174     319.769
  P      266.601    -275.863     321.175
  C      267.441    -278.073     320.105
  O      267.783    -276.811     320.652
  O      265.705    -276.839     322.079
  O      267.046    -274.663     321.947
  H      265.871    -276.658     323.017
  H      268.276    -278.423     319.496
  H      266.549    -278.008     319.480
  H      267.265    -278.785     320.918
  H      261.539    -268.973     319.196
  H      263.223    -269.421     319.325
  H      262.350    -268.886     320.741

 3  4  5  6  7  8  9  10  11  12  13  24  27  28  29  30  32 0
 6-311+G(2d,p)
 ****
 34  35 0
 6-311+G(2d,p)
 ****
 1  2  14  15  16  17  18  19  20  21  22  23  25  26 0
 3-21G
 ****
 31  33  36  37  38  39  40  41  42  43  44  45  46 0
 3-21G
 ****


