%nproc=1
%NoSave
%Mem=1900MB
#P OB98/GEN NMR

erre ene a

0 1
  C      123.111    -194.253    -530.300
  O      123.142    -195.418    -529.499
  H      123.997    -193.643    -530.113
  H      123.104    -194.553    -531.351
  H      122.208    -193.674    -530.092
  P      123.146    -195.203    -527.909
  C      125.375    -196.535    -527.751
  O      124.681    -195.326    -527.457
  C      126.819    -196.223    -528.117
  O      126.867    -195.187    -529.123
  C      127.664    -195.697    -526.954
  O      128.137    -196.746    -526.128
  C      128.802    -195.033    -527.711
  O      129.713    -196.042    -528.195
  C      128.058    -194.388    -528.884
  N      129.675    -189.535    -528.614
  C      130.329    -190.693    -528.877
  N      129.822    -191.945    -528.926
  C      128.507    -191.932    -528.668
  C      127.713    -190.842    -528.380
  C      128.351    -189.585    -528.365
  N      127.693    -188.407    -528.087
  N      126.407    -191.223    -528.138
  C      126.413    -192.531    -528.315
  N      127.662    -193.011    -528.625
  O      122.487    -196.548    -527.342
  O      122.447    -193.976    -527.419
  H      129.199    -196.621    -528.786
  H      122.148    -196.403    -526.442
  H      131.391    -190.598    -529.066
  H      125.545    -193.177    -528.227
  H      128.643    -194.385    -529.810
  H      129.377    -194.347    -527.097
  H      127.122    -194.937    -526.373
  H      127.267    -197.130    -528.549
  H      124.885    -197.032    -528.597
  H      128.271    -187.598    -527.921
  H      126.739    -188.453    -527.749
  H      125.335    -197.195    -526.875
  P      127.587    -196.803    -524.617
  C      129.946    -197.343    -523.653
  O      128.837    -196.443    -523.685
  O      127.370    -198.368    -524.366
  O      126.343    -196.013    -524.378
  H      126.683    -198.522    -523.690
  H      130.694    -196.964    -522.989
  H      130.357    -197.437    -524.636
  H      129.617    -198.302    -523.310

 6  7  8  9  10  11  12  13  14  15  25  28  32  33  34  35 0
 6-311+G(2d,p)
 ****
 36  39  40 0
 6-311+G(2d,p)
 ****
 1  2  3  4  5  16  17  18  19  20  21  22  23  24 0
 3-21G
 ****
 26  27  29  30  31  37  38  41  42  43  44  45  46  47 0
 3-21G
 ****
 48 0
 3-21G
 ****


