%nproc=1
%NoSave
%Mem=1900MB
#P OB98/GEN NMR

erre ene a

0 1
  C     -899.104    -899.300    -713.665
  O     -898.934    -897.930    -713.375
  P     -897.614    -897.580    -712.515
  C     -896.064    -896.680    -714.372
  O     -896.314    -897.730    -713.458
  C     -894.564    -896.510    -714.682
  O     -893.844    -896.180    -713.494
  C     -893.964    -897.780    -715.308
  O     -892.924    -897.380    -716.238
  C     -893.264    -898.450    -714.097
  O     -892.294    -899.350    -714.538
  C     -892.794    -897.190    -713.337
  N     -892.504    -897.490    -711.987
  C     -891.384    -898.310    -711.696
  O     -890.764    -898.810    -712.611
  N     -891.004    -898.520    -710.398
  C     -891.724    -898.020    -709.418
  N     -891.334    -898.290    -708.141
  C     -892.954    -897.230    -709.652
  C     -893.254    -896.970    -710.916
  O     -897.474    -898.790    -711.472
  O     -897.744    -896.240    -711.799
  H     -892.774    -900.000    -715.208
  H     -897.344    -898.440    -710.601
  H     -893.534    -896.840    -708.820
  H     -894.134    -896.370    -711.223
  H     -891.844    -896.780    -713.811
  H     -894.064    -899.000    -713.495
  H     -894.654    -898.450    -715.827
  H     -894.434    -895.680    -715.394
  H     -890.484    -898.830    -708.049
  H     -896.444    -895.710    -713.978
  H     -891.844    -897.960    -707.311
  H     -896.624    -896.890    -715.304
  P     -893.334    -897.350    -717.809
  C     -892.974    -894.780    -717.922
  O     -893.864    -895.840    -718.007
  O     -894.644    -898.210    -717.800
  O     -892.304    -897.810    -718.779
  H     -894.954    -898.280    -718.730
  H     -893.444    -893.830    -718.224
  H     -892.114    -894.940    -718.561
  H     -892.594    -894.640    -716.874
  H     -900.000    -899.436    -714.235
  H     -899.176    -899.852    -712.751
  H     -898.266    -899.652    -714.229

 3  4  5  6  7  8  9  10  11  12  13  21  23  27  28  29  30  32 0
 6-311+G(2d,p)
 ****
 34  35 0
 6-311+G(2d,p)
 ****
 1  2  14  15  16  17  18  19  20  22  24  25  26 0
 3-21G
 ****
 31  33  36  37  38  39  40  41  42  43  44  45  46 0
 3-21G
 ****


