%nproc=1
%NoSave
%Mem=1900MB
#P OB98/GEN NMR

erre ene a

0 1
  C     -891.190    -893.200    -777.142
  O     -892.380    -893.450    -776.413
  P     -893.460    -892.280    -776.214
  C     -895.550    -892.970    -777.617
  O     -894.950    -892.870    -776.321
  C     -896.780    -893.850    -777.581
  O     -896.410    -895.270    -777.657
  C     -897.570    -893.720    -776.287
  O     -898.240    -892.500    -776.089
  C     -898.400    -895.000    -776.281
  O     -899.580    -894.870    -777.091
  C     -897.440    -896.030    -776.927
  N     -896.820    -896.910    -775.941
  C     -896.550    -898.210    -776.399
  O     -896.890    -898.610    -777.506
  N     -895.960    -899.050    -775.454
  C     -895.640    -898.730    -774.169
  O     -895.110    -899.520    -773.393
  C     -895.930    -897.340    -773.743
  C     -896.510    -896.510    -774.645
  O     -893.240    -891.050    -777.015
  O     -893.340    -891.950    -774.652
  H     -900.000    -895.760    -777.102
  H     -893.390    -890.980    -774.539
  H     -895.760    -900.000    -775.767
  H     -895.700    -897.060    -772.748
  H     -896.730    -895.490    -774.342
  H     -897.950    -896.640    -777.657
  H     -898.730    -895.270    -775.260
  H     -896.860    -893.810    -775.456
  H     -897.380    -893.670    -778.465
  H     -894.800    -893.370    -778.320
  H     -895.790    -891.950    -777.969
  P     -898.130    -891.650    -774.770
  C     -896.050    -890.220    -775.340
  O     -897.420    -890.240    -775.097
  O     -897.710    -892.310    -773.519
  O     -899.680    -891.180    -774.555
  H     -899.840    -891.110    -773.591
  H     -895.730    -889.230    -775.576
  H     -895.780    -890.850    -776.209
  H     -895.510    -890.620    -774.448
  H     -890.596    -894.089    -777.170
  H     -890.638    -892.417    -776.666
  H     -891.438    -892.905    -778.140

 3  4  5  6  7  8  9  10  11  12  13  23  28  29  30  31  32 0
 6-311+G(2d,p)
 ****
 33  34 0
 6-311+G(2d,p)
 ****
 1  2  14  15  16  17  18  19  20  21  22  24  25  26  27 0
 3-21G
 ****
 35  36  37  38  39  40  41  42  43  44  45 0
 3-21G
 ****


