%nproc=1
%NoSave
%Mem=1900MB
#P OB98/GEN NMR

erre ene a

0 1
  C     -687.522    -200.681     -53.082
  O     -688.910    -200.618     -53.351
  H     -687.356    -200.633     -52.005
  H     -687.134    -201.632     -53.456
  H     -686.993    -199.865     -53.579
  P     -689.630    -199.199     -53.164
  C     -689.851    -198.773     -55.715
  O     -689.294    -198.343     -54.483
  C     -688.748    -199.120     -56.714
  O     -687.901    -200.157     -56.128
  C     -689.258    -199.645     -58.068
  O     -688.422    -199.118     -59.101
  C     -689.038    -201.144     -57.971
  O     -688.888    -201.761     -59.241
  C     -687.774    -201.200     -57.105
  N     -686.615    -206.073     -57.990
  C     -686.412    -204.950     -58.713
  N     -686.708    -203.679     -58.375
  C     -687.204    -203.615     -57.130
  C     -687.463    -204.669     -56.268
  C     -687.160    -205.954     -56.758
  N     -687.429    -207.116     -56.051
  N     -688.029    -204.207     -55.097
  C     -688.130    -202.905     -55.258
  N     -687.646    -202.495     -56.471
  O     -688.735    -198.504     -52.028
  O     -691.070    -199.254     -52.782
  H     -689.775    -201.926     -59.618
  H     -689.071    -198.757     -51.148
  H     -685.964    -205.092     -59.694
  H     -688.570    -202.214     -54.548
  H     -686.860    -201.020     -57.685
  H     -689.886    -201.605     -57.455
  H     -690.307    -199.390     -58.273
  H     -688.117    -198.236     -56.857
  H     -690.465    -197.963     -56.132
  H     -687.281    -207.991     -56.527
  H     -687.936    -207.041     -55.179
  H     -690.491    -199.646     -55.540
  P     -688.739    -197.632     -59.623
  C     -686.385    -196.513     -59.608
  O     -687.663    -196.631     -58.990
  O     -690.094    -197.253     -58.849
  O     -688.905    -197.532     -61.105
  H     -690.643    -196.672     -59.400
  H     -685.790    -195.809     -59.065
  H     -686.506    -196.175     -60.616
  H     -685.899    -197.466     -59.607

 6  7  8  9  10  11  12  13  14  15  25  28  32  33  34  35 0
 6-311+G(2d,p)
 ****
 36  39  40 0
 6-311+G(2d,p)
 ****
 1  2  3  4  5  16  17  18  19  20  21  22  23  24 0
 3-21G
 ****
 26  27  29  30  31  37  38  41  42  43  44  45  46  47 0
 3-21G
 ****
 48 0
 3-21G
 ****


