%nproc=1
%NoSave
%Mem=1900MB
#P OB98/GEN NMR

erre ene a

0 1
  C      194.765    -126.155    -237.945
  O      193.490    -125.660    -237.582
  H      194.635    -127.129    -238.427
  H      195.401    -126.281    -237.066
  H      195.241    -125.475    -238.656
  P      193.426    -124.381    -236.614
  C      191.785    -125.555    -235.006
  O      191.988    -124.462    -235.896
  C      190.616    -125.290    -234.058
  O      190.936    -124.218    -233.145
  C      189.341    -124.840    -234.755
  O      188.738    -125.819    -235.569
  C      188.551    -124.239    -233.602
  O      187.858    -125.226    -232.841
  C      189.683    -123.611    -232.750
  N      189.728    -122.160    -232.869
  C      188.555    -121.485    -232.545
  O      187.518    -122.051    -232.199
  N      188.598    -120.123    -232.667
  C      189.659    -119.392    -233.115
  O      189.628    -118.171    -233.221
  C      190.861    -120.163    -233.478
  C      190.838    -121.490    -233.341
  O      193.705    -123.060    -237.267
  O      194.439    -124.744    -235.431
  H      188.533    -125.816    -232.456
  H      194.674    -123.940    -234.903
  H      187.762    -119.614    -232.423
  H      191.716    -119.618    -233.847
  H      191.714    -122.082    -233.599
  H      189.540    -123.860    -231.689
  H      187.808    -123.514    -233.944
  H      189.592    -124.007    -235.424
  H      190.449    -126.193    -233.462
  H      192.702    -125.684    -234.421
  H      191.603    -126.469    -235.584
  P      188.920    -125.892    -237.150
  C      186.642    -124.983    -238.055
  O      187.481    -126.109    -237.821
  O      190.062    -126.711    -237.655
  O      189.232    -124.350    -237.514
  H      189.856    -124.350    -238.268
  H      185.727    -125.307    -238.505
  H      187.139    -124.298    -238.710
  H      186.430    -124.497    -237.126

 6  7  8  9  10  11  12  13  14  15  16  26  31  32  33  34  35 0
 6-311+G(2d,p)
 ****
 36  37 0
 6-311+G(2d,p)
 ****
 1  2  3  4  5  17  18  19  20  21  22  23  24  25 0
 3-21G
 ****
 27  28  29  30  38  39  40  41  42  43  44  45 0
 3-21G
 ****


