%nproc=1
%NoSave
%Mem=1900MB
#P OB98/GEN NMR

erre ene a

0 1
  C     1391.000      77.780     175.930
  O     1389.936      77.175     175.222
  H     1390.598      78.253     176.829
  H     1391.470      78.541     175.309
  H     1391.743      77.034     176.226
  P     1390.337      76.244     173.978
  C     1388.918      77.867     172.527
  O     1389.241      76.517     172.830
  C     1387.646      77.928     171.679
  O     1387.889      77.358     170.365
  C     1386.466      77.154     172.264
  O     1385.775      77.918     173.246
  C     1385.619      76.965     171.021
  O     1384.932      78.186     170.703
  C     1386.677      76.654     169.949
  N     1385.070      72.268     167.990
  C     1384.487      73.525     167.964
  N     1383.295      73.627     167.327
  N     1385.002      74.590     168.516
  C     1386.197      74.342     169.116
  C     1386.872      73.152     169.206
  C     1386.286      71.978     168.588
  O     1386.769      70.856     168.554
  N     1388.065      73.292     169.890
  C     1388.081      74.563     170.239
  N     1386.974      75.242     169.784
  O     1389.977      74.764     174.487
  O     1391.764      76.335     173.543
  H     1384.392      78.421     171.483
  H     1390.639      74.138     174.125
  H     1384.607      71.479     167.557
  H     1388.870      75.040     170.795
  H     1386.408      77.041     168.961
  H     1384.853      76.183     171.144
  H     1382.812      72.834     166.933
  H     1386.771      76.172     172.654
  H     1382.861      74.539     167.263
  H     1387.387      78.979     171.536
  H     1389.745      78.316     171.965
  H     1388.770      78.417     173.461
  P     1386.012      77.539     174.787
  C     1383.567      78.068     175.507
  O     1384.955      78.406     175.618
  O     1387.422      78.241     175.117
  O     1386.037      76.069     175.079
  H     1387.844      77.797     175.876
  H     1382.989      78.731     176.116
  H     1383.418      77.061     175.836
  H     1383.258      78.159     174.487

 6  7  8  9  10  11  12  13  14  15  26  29  33  34 0
 6-311+G(2d,p)
 ****
 36  38  39  40  41 0
 6-311+G(2d,p)
 ****
 1  2  3  4  5  16  17  18  19  20  21  22  23  24  25 0
 3-21G
 ****
 27  28  30  31  32  35  37  42  43  44  45  46  47 0
 3-21G
 ****
 48  49 0
 3-21G
 ****


