%nproc=1
%NoSave
%Mem=1900MB
#P OB98/GEN NMR

erre ene a

0 1
  C      971.911      83.556      72.838
  O      971.565      83.017      74.095
  P      972.114      81.547      74.448
  C      969.654      80.703      74.371
  O      970.990      80.518      73.923
  C      968.739      79.662      73.725
  O      968.604      79.916      72.323
  C      969.263      78.237      73.831
  O      969.045      77.712      75.128
  C      968.455      77.539      72.744
  O      967.182      77.099      73.237
  C      968.283      78.654      71.688
  N      969.071      78.436      70.497
  C      968.584      77.465      69.613
  O      967.550      76.843      69.872
  N      969.303      77.207      68.471
  C      970.408      77.838      68.228
  N      971.069      77.550      67.088
  C      970.971      78.869      69.153
  C      970.249      79.101      70.255
  O      971.977      81.470      76.035
  O      973.514      81.275      73.984
  H      966.732      76.663      72.482
  H      972.621      80.851      76.416
  H      971.888      79.366      68.912
  H      970.584      79.831      70.982
  H      967.222      78.731      71.387
  H      968.974      76.648      72.354
  H      970.329      78.193      73.583
  H      967.746      79.744      74.201
  H      970.673      76.833      66.485
  H      969.299      81.698      74.090
  H      971.926      78.008      66.804
  H      969.635      80.621      75.467
  P      969.885      76.415      75.572
  C      967.616      75.245      75.696
  O      968.947      75.182      75.223
  O      969.778      76.490      77.177
  O      971.295      76.342      75.109
  H      970.359      75.795      77.565
  H      967.037      74.423      75.265
  H      967.149      76.191      75.383
  H      967.589      75.154      76.779
  H      971.482      84.531      72.738
  H      971.538      82.920      72.062
  H      972.976      83.625      72.761

 3  4  5  6  7  8  9  10  11  12  13  21  23  27  28  29  30  32 0
 6-311+G(2d,p)
 ****
 34  35 0
 6-311+G(2d,p)
 ****
 1  2  14  15  16  17  18  19  20  22  24  25  26 0
 3-21G
 ****
 31  33  36  37  38  39  40  41  42  43  44  45  46 0
 3-21G
 ****


