%nproc=1
%NoSave
%Mem=1900MB
#P OB98/GEN NMR

erre ene a

0 1
  C     -201.906    -259.390    -263.761
  O     -202.244    -257.998    -263.759
  P     -203.525    -257.415    -262.987
  C     -202.421    -256.619    -260.795
  O     -203.302    -257.557    -261.408
  C     -203.036    -256.010    -259.530
  O     -203.152    -256.998    -258.490
  C     -202.233    -254.870    -258.916
  O     -202.390    -253.675    -259.656
  C     -202.816    -254.826    -257.506
  O     -204.046    -254.084    -257.475
  C     -203.071    -256.323    -257.222
  N     -202.048    -256.911    -256.367
  C     -202.062    -256.522    -255.019
  O     -202.864    -255.681    -254.621
  N     -201.138    -257.083    -254.166
  C     -200.239    -257.895    -254.631
  N     -199.356    -258.424    -253.736
  C     -200.135    -258.260    -256.055
  C     -201.062    -257.737    -256.855
  O     -204.828    -257.960    -263.471
  O     -203.464    -255.827    -263.226
  H     -203.805    -253.149    -257.331
  H     -204.373    -255.470    -263.240
  H     -199.353    -258.917    -256.405
  H     -201.068    -257.960    -257.917
  H     -204.049    -256.460    -256.742
  H     -202.137    -254.359    -256.784
  H     -201.171    -255.148    -258.862
  H     -204.051    -255.670    -259.781
  H     -199.460    -258.161    -252.764
  H     -202.210    -255.823    -261.515
  H     -198.620    -259.068    -253.994
  H     -201.479    -257.128    -260.552
  P     -201.220    -252.578    -259.660
  C     -199.966    -253.397    -261.744
  O     -199.930    -253.248    -260.337
  O     -200.970    -251.898    -258.353
  O     -201.692    -251.524    -260.771
  H     -201.367    -250.638    -260.519
  H     -198.940    -253.468    -262.116
  H     -200.456    -252.541    -262.220
  H     -200.499    -254.314    -261.998
  H     -201.017    -259.540    -264.338
  H     -202.709    -259.951    -264.190
  H     -201.739    -259.718    -262.756

 3  4  5  6  7  8  9  10  11  12  13  23  27  28  29  30  32 0
 6-311+G(2d,p)
 ****
 34  35 0
 6-311+G(2d,p)
 ****
 1  2  14  15  16  17  18  19  20  21  22  24  25  26 0
 3-21G
 ****
 31  33  36  37  38  39  40  41  42  43  44  45  46 0
 3-21G
 ****


