%nproc=1
%NoSave
%Mem=1900MB
#P OB98/GEN NMR

erre ene a

0 1
  C      -63.826     270.216    -198.495
  O      -63.401     269.125    -199.287
  H      -64.862     270.451    -198.747
  H      -63.203     271.092    -198.700
  H      -63.768     269.959    -197.434
  P      -61.899     268.614    -199.052
  C      -61.133     269.215    -201.471
  O      -60.985     269.442    -200.078
  C      -60.116     270.048    -202.259
  O      -60.502     271.452    -202.182
  C      -58.680     269.952    -201.718
  O      -57.778     270.159    -202.818
  C      -58.624     271.148    -200.781
  O      -57.295     271.444    -200.419
  C      -59.374     272.170    -201.631
  N      -59.597     277.276    -201.574
  C      -59.136     276.406    -202.499
  N      -59.121     275.060    -202.449
  C      -59.674     274.620    -201.305
  C      -60.193     275.384    -200.273
  C      -60.137     276.779    -200.437
  N      -60.599     277.668    -199.494
  N      -60.669     274.575    -199.259
  C      -60.440     273.345    -199.672
  N      -59.833     273.323    -200.898
  O      -61.913     267.136    -199.663
  O      -61.429     268.632    -197.637
  H      -57.270     272.134    -199.722
  H      -62.071     266.485    -198.953
  H      -58.720     276.854    -203.399
  H      -60.683     272.442    -199.126
  H      -58.766     272.527    -202.470
  H      -59.164     270.940    -199.852
  H      -58.458     268.994    -201.240
  H      -60.164     269.764    -203.317
  H      -62.150     269.498    -201.763
  H      -60.980     268.154    -201.687
  H      -60.509     278.654    -199.680
  H      -60.989     277.312    -198.634
  P      -57.160     268.882    -203.573
  C      -55.248     268.764    -201.790
  O      -56.235     268.073    -202.541
  O      -56.066     269.560    -204.532
  O      -58.126     268.066    -204.367
  H      -55.938     269.004    -205.323
  H      -54.731     268.072    -201.159
  H      -55.718     269.513    -201.188
  H      -54.552     269.227    -202.457

 6  7  8  9  10  11  12  13  14  15  25  28  32  33  34  35 0
 6-311+G(2d,p)
 ****
 36  37  40 0
 6-311+G(2d,p)
 ****
 1  2  3  4  5  16  17  18  19  20  21  22  23  24 0
 3-21G
 ****
 26  27  29  30  31  38  39 41  42  43  44  45  46  47  48 0
 3-21G
 ****


