%nproc=1
%NoSave
%Mem=1900MB
#P OB98/GEN NMR

erre ene a

0 1
  C     -518.485     -61.147    -477.745
  O     -517.948     -61.106    -476.434
  P     -517.876     -62.485    -475.620
  C     -515.839     -62.035    -474.059
  O     -516.321     -62.683    -475.234
  C     -514.350     -61.752    -474.156
  O     -514.112     -60.751    -475.187
  C     -513.717     -61.207    -472.906
  O     -513.417     -62.246    -471.974
  C     -512.432     -60.573    -473.452
  O     -511.432     -61.605    -473.649
  C     -512.908     -60.037    -474.820
  N     -511.373     -55.474    -473.196
  C     -510.818     -56.727    -472.998
  N     -509.651     -56.774    -472.286
  N     -511.325     -57.839    -473.459
  C     -512.447     -57.656    -474.173
  C     -513.116     -56.466    -474.425
  C     -512.557     -55.247    -473.878
  O     -513.048     -54.126    -473.960
  N     -514.230     -56.682    -475.201
  C     -514.234     -57.966    -475.469
  N     -513.185     -58.614    -474.819
  O     -518.111     -63.598    -476.751
  O     -518.850     -62.615    -474.508
  H     -511.221     -61.959    -472.770
  H     -518.469     -64.411    -476.373
  H     -510.934     -54.651    -472.822
  H     -514.945     -58.483    -476.097
  H     -512.165     -60.245    -475.607
  H     -512.007     -59.818    -472.789
  H     -509.139     -55.941    -472.037
  H     -514.336     -60.417    -472.453
  H     -509.197     -57.671    -472.178
  H     -513.846     -62.681    -474.490
  H     -516.013     -62.685    -473.203
  H     -516.408     -61.099    -473.916
  P     -514.455     -62.423    -470.725
  C     -513.764     -64.852    -470.124
  O     -514.750     -63.998    -470.684
  O     -515.819     -61.798    -471.325
  O     -514.013     -61.771    -469.475
  H     -516.379     -61.489    -470.589
  H     -513.252     -64.372    -469.275
  H     -513.023     -65.116    -470.885
  H     -514.242     -65.758    -469.749
  H     -518.472     -60.164    -478.167
  H     -519.492     -61.506    -477.707
  H     -517.896     -61.803    -478.351

 3  4  5  6  7  8  9  10  11  12  23  26  30  31  33  0
 6-311+G(2d,p)
 ****
 35  36  37  38 0
 6-311+G(2d,p)
 ****
 1  2  13  14  15  16  17  18  19  20  21  22  24  25  27  28  29 0
 3-21G
 ****
 32  34  39  40  41  42  43  44  45  46  47  48  49 0
 3-21G
 ****


