%nproc=1
%NoSave
%Mem=1900MB
#P OB98/GEN NMR

erre ene a

0 1
  C      167.240    -235.330     106.446
  O      167.015    -234.622     107.648
  H      168.230    -235.790     106.490
  H      167.203    -234.657     105.586
  H      166.494    -236.124     106.329
  P      165.671    -233.761     107.785
  C      166.478    -231.611     108.972
  O      165.832    -232.866     109.106
  C      166.390    -230.808     110.277
  O      164.989    -230.666     110.651
  C      167.113    -231.472     111.465
  O      167.565    -230.424     112.331
  C      165.978    -232.247     112.109
  O      166.317    -232.679     113.401
  C      164.838    -231.233     111.971
  N      163.528    -231.836     112.161
  C      163.040    -231.859     113.469
  O      163.715    -231.398     114.393
  N      161.817    -232.430     113.709
  C      161.167    -232.988     112.740
  N      159.967    -233.553     113.046
  C      161.674    -233.040     111.350
  C      162.845    -232.443     111.134
  O      164.394    -234.530     107.701
  O      165.781    -232.683     106.603
  H      167.060    -233.327     113.373
  H      165.180    -232.932     105.874
  H      161.101    -233.537     110.579
  H      163.299    -232.430     110.146
  H      164.954    -230.416     112.695
  H      165.750    -233.148     111.529
  H      167.953    -232.099     111.156
  H      166.776    -229.797     110.096
  H      159.663    -233.502     114.011
  H      165.973    -231.067     108.164
  H      159.386    -234.034     112.376
  H      167.529    -231.751     108.698
  P      168.863    -229.537     112.020
  C      169.599    -229.411     114.492
  O      169.245    -228.682     113.320
  O      168.762    -228.728     110.766
  O      170.068    -230.590     111.906
  H      170.730    -230.248     111.274
  H      169.830    -228.727     115.282
  H      170.454    -230.021     114.288
  H      168.779    -230.032     114.787

 6  7  8  9  10  11  12  13  14  15  16  26  30  31  32  33  35 0
 6-311+G(2d,p)
 ****
 37  38 0
 6-311+G(2d,p)
 ****
 1  2  3  4  5  17  18  19  20  21  22  23  24  25 0
 3-21G
 ****
 27  28  29  34  36  39  40  41  42  43  44  45  46 0
 3-21G
 ****


