%nproc=1
%NoSave
%Mem=1900MB
#P OB98/GEN NMR

erre ene a

0 1
  C      -20.863    -293.181     282.618
  O      -20.281    -293.741     281.457
  P      -19.866    -295.290     281.417
  C      -20.857    -295.442     279.040
  O      -20.865    -295.977     280.362
  C      -22.257    -294.976     278.634
  O      -22.647    -293.818     279.402
  C      -22.375    -294.564     277.172
  O      -22.448    -295.704     276.340
  C      -23.646    -293.722     277.209
  O      -24.819    -294.552     277.149
  C      -23.538    -293.029     278.587
  N      -23.089    -291.646     278.475
  C      -24.090    -290.698     278.246
  O      -25.267    -291.045     278.119
  N      -23.736    -289.372     278.118
  C      -22.480    -289.041     278.181
  N      -22.184    -287.716     278.037
  C      -21.388    -290.013     278.396
  C      -21.762    -291.284     278.528
  O      -19.779    -295.962     282.749
  O      -18.473    -295.264     280.623
  H      -24.711    -295.122     276.360
  H      -17.738    -294.918     281.196
  H      -20.364    -289.686     278.432
  H      -21.028    -292.067     278.680
  H      -24.509    -293.034     279.094
  H      -23.702    -293.029     276.363
  H      -21.525    -293.932     276.896
  H      -22.961    -295.791     278.865
  H      -22.953    -287.084     277.869
  H      -20.523    -296.225     278.353
  H      -21.244    -287.355     278.044
  H      -20.140    -294.610     278.992
  P      -21.767    -295.672     274.889
  C      -20.356    -297.803     274.641
  O      -20.358    -296.430     274.988
  O      -21.726    -294.333     274.228
  O      -22.665    -296.696     274.035
  H      -22.853    -296.299     273.163
  H      -19.332    -298.109     274.429
  H      -20.975    -297.990     273.760
  H      -20.736    -298.392     275.489
  H      -21.067    -292.144     282.450
  H      -20.186    -293.282     283.441
  H      -21.776    -293.693     282.842

 3  4  5  6  7  8  9  10  11  12  13  23  27  28  29  30  32 0
 6-311+G(2d,p)
 ****
 34  35 0
 6-311+G(2d,p)
 ****
 1  2  14  15  16  17  18  19  20  21  22  24  25  26 0
 3-21G
 ****
 31  33  36  37  38  39  40  41  42  43  44  45  46 0
 3-21G
 ****


