%nproc=1
%NoSave
%Mem=1900MB
#P OB98/GEN NMR

erre ene a

0 1
  C      277.122     415.332    -687.781
  O      277.822     416.344    -687.042
  P      278.925     417.236    -687.792
  C      281.110     418.486    -687.190
  O      280.147     417.526    -686.786
  C      281.851     419.039    -685.967
  O      280.972     419.853    -685.137
  C      282.353     417.942    -685.033
  O      283.407     417.134    -685.509
  C      282.576     418.692    -683.735
  O      283.843     419.355    -683.723
  C      281.427     419.736    -683.775
  N      280.316     419.384    -682.875
  C      280.294     420.053    -681.652
  O      281.152     420.859    -681.303
  N      279.247     419.736    -680.823
  C      278.280     418.805    -681.088
  O      277.378     418.547    -680.288
  C      278.377     418.109    -682.375
  C      279.377     418.436    -683.205
  O      278.414     418.427    -688.524
  O      279.577     416.182    -688.824
  H      283.843     420.003    -684.453
  H      279.725     416.651    -689.673
  H      279.211     420.206    -679.938
  H      277.626     417.378    -682.608
  H      279.471     417.930    -684.164
  H      281.799     420.733    -683.476
  H      282.556     418.027    -682.863
  H      281.518     417.246    -684.852
  H      282.661     419.681    -686.311
  H      280.617     419.303    -687.737
  H      281.794     418.026    -687.905
  P      283.180     415.718    -686.219
  C      284.782     414.600    -687.935
  O      284.606     415.116    -686.632
  O      282.089     415.631    -687.233
  O      282.784     414.788    -684.954
  H      282.153     414.111    -685.260
  H      285.806     414.218    -688.029
  H      284.628     415.366    -688.683
  H      284.083     413.770    -688.107
  H      276.428     414.835    -687.136
  H      277.824     414.622    -688.166
  H      276.592     415.785    -688.593

 3  4  5  6  7  8  9  10  11  12  13  23  28  29  30  31  32 0
 6-311+G(2d,p)
 ****
 33  34 0
 6-311+G(2d,p)
 ****
 1  2  14  15  16  17  18  19  20  21  22  24  25  26  27 0
 3-21G
 ****
 35  36  37  38  39  40  41  42  43  44  45 0
 3-21G
 ****


