%nproc=1
%NoSave
%Mem=1900MB
#P OB98/GEN NMR

erre ene a

0 1
  C      616.313      42.766     -18.749
  O      616.759      41.892     -17.731
  H      617.044      43.572     -18.861
  H      615.346      43.203     -18.489
  H      616.237      42.229     -19.697
  P      615.793      40.707     -17.253
  C      617.202      38.563     -17.503
  O      616.741      39.578     -16.618
  C      618.551      38.949     -18.111
  O      619.515      39.101     -17.035
  C      619.098      37.913     -19.097
  O      619.754      38.603     -20.160
  C      620.105      37.152     -18.257
  O      621.086      36.522     -19.059
  C      620.634      38.240     -17.317
  N      621.200      37.658     -16.103
  C      622.434      37.011     -16.233
  O      622.996      36.961     -17.331
  N      622.972      36.374     -15.146
  C      622.312      36.341     -14.031
  N      622.883      35.661     -12.998
  C      620.995      36.987     -13.851
  C      620.505      37.620     -14.911
  O      614.816      40.206     -18.261
  O      615.052      41.317     -15.970
  H      620.693      35.739     -19.499
  H      614.224      41.755     -16.242
  H      620.482      36.922     -12.901
  H      619.538      38.117     -14.880
  H      621.406      38.841     -17.814
  H      619.591      36.372     -17.681
  H      618.321      37.252     -19.500
  H      618.453      39.932     -18.589
  H      623.776      35.213     -13.177
  H      616.460      38.453     -18.299
  H      622.449      35.527     -12.100
  H      617.288      37.614     -16.965
  P      619.116      38.629     -21.635
  C      619.829      41.016     -22.219
  O      619.964      39.639     -22.556
  O      617.641      38.844     -21.674
  O      619.489      37.188     -22.236
  H      618.799      36.916     -22.871
  H      620.426      41.606     -22.883
  H      620.156      41.171     -21.212
  H      618.803      41.306     -22.309

 6  7  8  9  10  11  12  13  14  15  16  26  30  31  32  33  35 0
 6-311+G(2d,p)
 ****
 37  38 0
 6-311+G(2d,p)
 ****
 1  2  3  4  5  17  18  19  20  21  22  23  24  25 0
 3-21G
 ****
 27  28  29  34  36  39  40  41  42  43  44  45  46 0
 3-21G
 ****


