%nproc=1
%NoSave
%Mem=1900MB
#P OB98/GEN NMR

erre ene a

0 1
  C     -170.364      18.750    -470.463
  O     -170.471      19.900    -471.278
  H     -170.569      19.033    -469.427
  H     -169.352      18.339    -470.521
  H     -171.092      17.995    -470.773
  P     -170.180      19.695    -472.843
  C     -172.332      20.817    -473.756
  O     -171.614      19.608    -473.557
  C     -173.746      20.523    -474.254
  O     -174.511      19.833    -473.239
  C     -174.546      21.760    -474.640
  O     -174.234      22.185    -475.954
  C     -175.973      21.240    -474.517
  O     -176.365      20.489    -475.684
  C     -175.877      20.326    -473.285
  N     -179.249      23.303    -470.993
  C     -179.250      22.774    -472.268
  N     -180.278      23.135    -473.068
  N     -178.323      21.972    -472.722
  C     -177.342      21.726    -471.822
  C     -177.240      22.178    -470.523
  C     -178.288      23.041    -470.026
  O     -178.378      23.491    -468.889
  N     -176.106      21.696    -469.919
  C     -175.509      20.985    -470.859
  N     -176.211      20.989    -472.035
  O     -169.636      18.190    -472.929
  O     -169.218      20.660    -473.447
  H     -176.331      21.068    -476.464
  H     -169.007      18.120    -473.670
  H     -180.000      23.902    -470.696
  H     -174.574      20.455    -470.735
  H     -176.535      19.453    -473.368
  H     -176.692      22.055    -474.415
  H     -180.806      23.976    -472.899
  H     -174.390      22.568    -473.913
  H     -180.272      22.768    -474.011
  H     -173.658      19.841    -475.110
  H     -171.809      21.424    -474.501
  H     -172.375      21.370    -472.810
  P     -173.754      23.707    -476.151
  C     -172.006      23.425    -478.054
  O     -172.240      23.640    -476.670
  O     -173.604      24.246    -474.650
  O     -174.679      24.552    -476.962
  H     -173.585      25.219    -474.642
  H     -170.952      23.406    -478.239
  H     -172.453      24.217    -478.618
  H     -172.436      22.490    -478.348

 6  7  8  9  10  11  12  13  14  15  26  29  33  34 0
 6-311+G(2d,p)
 ****
 36  38  39  40  41 0
 6-311+G(2d,p)
 ****
 1  2  3  4  5  16  17  18  19  20  21  22  23  24  25 0
 3-21G
 ****
 27  28  30  31  32  35  37  42  43  44  45  46  47 0
 3-21G
 ****
 48  49 0
 3-21G
 ****


