%nproc=1
%NoSave
%Mem=1900MB
#P OB98/GEN NMR

erre ene a

0 1
  C      -60.895    -104.270      96.109
  O      -60.746    -105.622      95.713
  P      -59.413    -106.396      96.148
  C      -58.740    -106.668      93.655
  O      -58.347    -106.254      94.956
  C      -57.621    -107.458      92.974
  O      -58.015    -107.785      91.615
  C      -56.294    -106.697      92.892
  O      -55.205    -107.625      93.005
  C      -56.284    -106.157      91.478
  O      -54.956    -105.887      91.029
  C      -56.986    -107.292      90.733
  N      -56.724    -107.782      85.711
  C      -56.177    -108.576      86.698
  N      -55.383    -109.587      86.287
  N      -56.395    -108.399      87.975
  C      -57.206    -107.345      88.239
  C      -57.819    -106.495      87.345
  C      -57.559    -106.696      85.937
  O      -57.989    -106.012      85.014
  N      -58.595    -105.567      87.988
  C      -58.422    -105.823      89.270
  N      -57.558    -106.869      89.473
  O      -59.853    -107.934      96.077
  O      -58.906    -106.049      97.506
  H      -55.031    -105.510      90.132
  H      -59.979    -108.284      96.978
  H      -56.516    -107.953      84.740
  H      -58.871    -105.270      90.084
  H      -56.301    -108.123      90.529
  H      -56.858    -105.225      91.426
  H      -55.122    -109.736      85.324
  H      -56.177    -105.907      93.643
  H      -54.934    -110.156      86.993
  H      -57.489    -108.407      93.506
  H      -58.969    -105.786      93.055
  H      -59.645    -107.280      93.723
  P      -53.791    -107.001      93.439
  C      -52.747    -107.662      91.148
  O      -53.038    -106.636      92.075
  O      -52.985    -108.267      93.992
  O      -53.889    -105.904      94.445
  H      -52.306    -107.982      94.631
  H      -53.291    -107.466      90.220
  H      -53.027    -108.651      91.523
  H      -51.674    -107.657      90.939
  H      -61.828    -103.893      95.746
  H      -60.094    -103.689      95.703
  H      -60.875    -104.207      97.177

 3  4  5  6  7  8  9  10  11  12  23  26  30  31 0
 6-311+G(2d,p)
 ****
 33  35  36  37  38 0
 6-311+G(2d,p)
 ****
 1  2  13  14  15  16  17  18  19  20  21  22  24  25 0
 3-21G
 ****
 27  28  29  32  34  39  40  41  42  43  44  45  46  47  48  49 0
 3-21G
 ****


