%nproc=1
%NoSave
%Mem=1900MB
#P OB98/GEN NMR

erre ene a

0 1
  C     -185.150      28.297      29.378
  O     -185.872      27.122      29.692
  H     -185.562      28.729      28.464
  H     -184.099      28.053      29.208
  H     -185.237      29.031      30.185
  P     -185.593      26.447      31.120
  C     -185.241      24.334      29.645
  O     -185.666      24.857      30.895
  C     -186.054      23.087      29.295
  O     -187.199      23.488      28.491
  C     -185.275      22.038      28.491
  O     -185.703      20.735      28.910
  C     -185.740      22.284      27.067
  O     -185.591      21.157      26.211
  C     -187.203      22.670      27.306
  N     -187.787      23.386      26.173
  C     -188.678      22.686      25.364
  O     -189.073      21.542      25.582
  N     -189.123      23.362      24.255
  C     -188.755      24.619      23.874
  O     -189.172      25.160      22.858
  C     -187.806      25.302      24.762
  C     -187.370      24.663      25.852
  O     -186.933      26.766      31.936
  O     -184.367      26.920      31.825
  H     -186.853      27.619      32.403
  H     -185.941      20.378      26.689
  H     -189.768      22.868      23.657
  H     -187.482      26.300      24.488
  H     -186.651      25.132      26.518
  H     -187.804      21.779      27.526
  H     -185.183      23.118      26.630
  H     -184.187      22.117      28.587
  H     -186.450      22.654      30.223
  H     -184.181      24.065      29.704
  H     -185.368      25.102      28.872
  P     -184.635      19.539      28.814
  C     -186.550      17.774      28.527
  O     -185.424      18.221      29.269
  O     -183.681      19.883      30.049
  O     -183.957      19.471      27.485
  H     -184.156      20.263      30.806
  H     -186.944      16.887      28.977
  H     -186.253      17.563      27.521
  H     -187.301      18.536      28.525

 6  7  8  9  10  11  12  13  14  15  16  27  31  32  33  34  35 0
 6-311+G(2d,p)
 ****
 36  37 0
 6-311+G(2d,p)
 ****
 1  2  3  4  5  17  18  19  20  21  22  23  24  25 0
 3-21G
 ****
 26  28  29  30  38  39  40  41  42  43  44  45 0
 3-21G
 ****


