%nproc=1
%NoSave
%Mem=1900MB
#P OB98/GEN NMR

erre ene a

0 1
  C     -470.919    -379.276     237.091
  O     -470.509    -378.042     237.680
  P     -470.253    -376.804     236.685
  C     -471.935    -374.932     237.341
  O     -471.635    -376.014     236.482
  C     -473.330    -375.122     237.973
  O     -473.365    -376.261     238.833
  C     -473.758    -373.944     238.835
  O     -474.203    -372.865     238.023
  C     -474.864    -374.568     239.687
  O     -476.159    -374.449     239.054
  C     -474.430    -376.051     239.773
  N     -474.050    -376.452     241.117
  C     -475.081    -376.548     242.056
  O     -476.238    -376.275     241.716
  N     -474.774    -376.917     243.335
  C     -473.545    -377.154     243.667
  N     -473.299    -377.504     244.955
  C     -472.417    -377.033     242.720
  C     -472.731    -376.679     241.463
  O     -470.026    -377.513     235.259
  O     -469.090    -375.945     237.065
  H     -476.775    -374.945     239.639
  H     -469.400    -376.993     234.720
  H     -471.404    -377.219     243.033
  H     -471.957    -376.560     240.705
  H     -475.259    -376.706     239.455
  H     -474.936    -374.084     240.671
  H     -472.933    -373.626     239.475
  H     -474.055    -375.269     237.153
  H     -474.092    -377.574     245.586
  H     -471.896    -373.979     236.797
  H     -472.375    -377.697     245.310
  H     -471.165    -374.879     238.114
  P     -473.515    -371.439     238.245
  C     -473.221    -370.328     235.949
  O     -472.648    -371.176     236.927
  O     -472.367    -371.774     239.329
  O     -474.393    -370.317     238.707
  H     -471.940    -370.960     239.625
  H     -472.462    -370.065     235.216
  H     -473.582    -369.400     236.413
  H     -474.050    -370.832     235.448
  H     -471.053    -380.010     237.858
  H     -470.169    -379.610     236.405
  H     -471.842    -379.133     236.569

 3  4  5  6  7  8  9  10  11  12  13  21  23  27  28  29  30  32 0
 6-311+G(2d,p)
 ****
 34  35 0
 6-311+G(2d,p)
 ****
 1  2  14  15  16  17  18  19  20  22  24  25  26 0
 3-21G
 ****
 31  33  36  37  38  39  40  41  42  43  44  45  46 0
 3-21G
 ****


