%nproc=1
%NoSave
%Mem=1900MB
#P OB98/GEN NMR

erre ene a

0 1
  C     -124.543    -293.902     429.366
  O     -124.606    -294.330     428.021
  H     -125.297    -293.134     429.557
  H     -124.736    -294.758     430.017
  H     -123.546    -293.507     429.587
  P     -124.453    -293.190     426.902
  C     -123.371    -294.960     425.349
  O     -124.357    -293.948     425.490
  C     -123.619    -295.762     424.077
  O     -124.837    -296.525     424.196
  C     -123.792    -294.923     422.816
  O     -122.547    -294.478     422.297
  C     -124.453    -295.936     421.893
  O     -123.451    -296.806     421.332
  C     -125.355    -296.723     422.854
  N     -129.883    -297.265     420.487
  C     -128.677    -297.836     420.264
  N     -127.516    -297.637     420.924
  C     -127.681    -296.754     421.927
  C     -128.849    -296.097     422.274
  C     -129.990    -296.373     421.501
  N     -131.213    -295.776     421.726
  N     -128.645    -295.275     423.359
  C     -127.372    -295.433     423.666
  N     -126.746    -296.313     422.825
  O     -122.965    -292.640     427.129
  O     -125.459    -292.089     426.970
  H     -122.849    -296.238     420.813
  H     -122.950    -291.679     426.953
  H     -128.636    -298.550     419.445
  H     -126.867    -294.940     424.493
  H     -125.312    -297.802     422.653
  H     -124.988    -295.472     421.059
  H     -124.479    -294.087     422.987
  H     -122.790    -296.473     423.959
  H     -123.417    -295.636     426.212
  H     -132.025    -296.159     421.274
  H     -131.284    -295.115     422.492
  H     -122.382    -294.493     425.316
  P     -122.579    -293.286     421.219
  C     -120.127    -292.695     421.843
  O     -121.047    -293.040     420.812
  O     -122.936    -292.000     422.106
  O     -123.539    -293.474     420.099
  H     -123.363    -291.322     421.548
  H     -119.152    -292.564     421.422
  H     -120.098    -293.478     422.572
  H     -120.440    -291.784     422.310

 6  7  8  9  10  11  12  13  14  15  25  28  32  33  34  35 0
 6-311+G(2d,p)
 ****
 36  39  40 0
 6-311+G(2d,p)
 ****
 1  2  3  4  5  16  17  18  19  20  21  22  23  24 0
 3-21G
 ****
 26  27  29  30  31  37  38  41  42  43  44  45  46  47  48 0
 3-21G
 ****


