%nproc=1
%NoSave
%Mem=1900MB
#P OB98/GEN NMR

erre ene a

0 1
  C     -398.243     568.388    -351.737
  O     -396.990     568.323    -352.396
  H     -398.157     567.997    -350.721
  H     -398.558     569.433    -351.691
  H     -398.990     567.815    -352.294
  P     -396.354     566.864    -352.595
  C     -394.953     565.307    -351.054
  O     -395.889     566.372    -351.139
  C     -393.911     565.605    -349.983
  O     -393.090     566.719    -350.383
  C     -394.488     565.974    -348.620
  O     -394.899     564.833    -347.884
  C     -393.274     566.653    -347.983
  O     -392.360     565.646    -347.497
  C     -392.657     567.396    -349.173
  N     -392.129     572.026    -347.037
  C     -391.540     570.832    -346.778
  N     -391.711     569.651    -347.410
  C     -392.601     569.777    -348.410
  C     -393.263     570.919    -348.812
  C     -393.005     572.094    -348.070
  N     -393.668     573.283    -348.306
  N     -394.106     570.648    -349.880
  C     -393.957     569.358    -350.100
  N     -393.051     568.794    -349.248
  O     -394.980     567.172    -353.356
  O     -397.206     565.901    -353.359
  H     -391.582     566.122    -347.152
  H     -395.108     567.046    -354.313
  H     -390.829     570.832    -345.954
  H     -394.490     568.807    -350.860
  H     -391.565     567.363    -349.158
  H     -393.541     567.289    -347.130
  H     -395.294     566.713    -348.721
  H     -393.256     564.719    -349.900
  H     -394.456     565.181    -352.030
  H     -393.762     573.864    -347.477
  H     -394.485     573.203    -348.898
  H     -395.491     564.383    -350.820
  P     -395.478     565.068    -346.407
  C     -394.411     564.740    -344.080
  O     -394.206     565.126    -345.425
  O     -396.151     563.652    -346.063
  O     -396.453     566.182    -346.276
  H     -397.094     563.786    -345.826
  H     -393.491     564.825    -343.540
  H     -394.751     563.726    -344.048
  H     -395.146     565.377    -343.634

 6  7  8  9  10  11  12  13  14  15  25  28  32  33  34  35 0
 6-311+G(2d,p)
 ****
 36  39  40 0
 6-311+G(2d,p)
 ****
 1  2  3  4  5  16  17  18  19  20  21  22  23  24 0
 3-21G
 ****
 26  27  29  30  31  37  38  41  42  43  44  45  46  47  48 0
 3-21G
 ****


