%nproc=1
%NoSave
%Mem=1900MB
#P OB98/GEN NMR

erre ene a

0 1
  C      228.026    -755.031    -543.154
  O      228.050    -754.106    -544.222
  H      227.417    -754.626    -542.345
  H      229.047    -755.188    -542.781
  H      227.604    -755.985    -543.474
  P      228.651    -754.554    -545.630
  C      226.356    -754.261    -546.784
  O      227.424    -755.160    -546.480
  C      225.227    -755.003    -547.511
  O      225.667    -755.310    -548.863
  C      224.813    -756.338    -546.847
  O      223.417    -756.508    -547.098
  C      225.648    -757.324    -547.654
  O      225.204    -758.639    -547.460
  C      225.478    -756.729    -549.054
  N      226.405    -757.263    -550.036
  C      225.964    -758.307    -550.846
  O      224.835    -758.775    -550.784
  N      226.882    -758.818    -551.714
  C      228.176    -758.416    -551.867
  O      228.949    -758.889    -552.682
  C      228.606    -757.322    -550.963
  C      227.714    -756.812    -550.114
  O      229.868    -755.427    -545.573
  O      228.956    -753.168    -546.376
  H      229.906    -752.946    -546.267
  H      225.650    -759.253    -548.083
  H      226.561    -759.565    -552.318
  H      229.621    -756.988    -551.043
  H      228.001    -756.009    -549.432
  H      224.461    -756.863    -549.415
  H      226.691    -757.288    -547.344
  H      225.020    -756.350    -545.773
  H      224.360    -754.324    -547.600
  H      226.757    -753.458    -547.418
  H      225.982    -753.820    -545.854
  P      222.274    -756.101    -546.031
  C      221.555    -753.927    -547.229
  O      222.103    -754.489    -546.048
  O      222.501    -756.670    -544.673
  O      220.899    -756.637    -546.648
  H      220.322    -756.940    -545.927
  H      221.491    -752.864    -547.122
  H      220.577    -754.328    -547.394
  H      222.183    -754.165    -548.062

 6  7  8  9  10  11  12  13  14  15  16  27  31  32  33  34  35 0
 6-311+G(2d,p)
 ****
 36  37 0
 6-311+G(2d,p)
 ****
 1  2  3  4  5  17  18  19  20  21  22  23  24  25 0
 3-21G
 ****
 26  28  29  30  38  39  40  41  42  43  44  45 0
 3-21G
 ****


