%nproc=1
%NoSave
%Mem=1900MB
#P OB98/GEN NMR

erre ene a

0 1
  C      341.831    -297.087    -606.691
  O      342.375    -296.148    -607.604
  P      341.664    -294.708    -607.684
  C      343.823    -293.344    -607.133
  O      342.508    -293.716    -606.730
  C      344.810    -293.577    -605.987
  O      344.732    -294.946    -605.529
  C      346.275    -293.352    -606.356
  O      346.572    -291.967    -606.430
  C      346.958    -294.084    -605.201
  O      346.959    -293.276    -604.018
  C      346.039    -295.306    -605.008
  N      349.794    -298.798    -605.216
  C      349.614    -297.702    -604.439
  N      348.595    -296.813    -604.450
  C      347.694    -297.135    -605.402
  C      347.748    -298.207    -606.279
  C      348.852    -299.069    -606.161
  N      349.030    -300.177    -606.972
  N      346.656    -298.206    -607.123
  C      345.943    -297.158    -606.744
  N      346.525    -296.490    -605.700
  O      340.306    -294.922    -606.872
  O      341.416    -294.201    -609.070
  H      347.474    -292.471    -604.209
  H      339.582    -294.377    -607.245
  H      350.393    -297.515    -603.705
  H      345.009    -296.854    -607.190
  H      345.914    -295.574    -603.946
  H      348.002    -294.353    -605.422
  H      346.513    -293.836    -607.296
  H      344.516    -292.921    -605.152
  H      343.835    -292.283    -607.401
  H      349.924    -300.650    -606.921
  H      348.418    -300.297    -607.761
  H      344.114    -293.930    -608.017
  P      347.106    -291.407    -607.836
  C      345.050    -290.110    -608.690
  O      345.782    -291.336    -608.749
  O      347.868    -292.685    -608.422
  O      347.908    -290.154    -607.754
  H      347.321    -293.496    -608.363
  H      344.210    -290.178    -609.389
  H      345.692    -289.268    -608.986
  H      344.661    -289.957    -607.683
  H      342.393    -297.996    -606.737
  H      340.811    -297.285    -606.948
  H      341.878    -296.689    -605.699

 3  4  5  6  7  8  9  10  11  12  22  25  29  30  31  32 0
 6-311+G(2d,p)
 ****
 33  36  37 0
 6-311+G(2d,p)
 ****
 1  2  13  14  15  16  17  18  19  20  21  23  24  26 0
 3-21G
 ****
 27  28  34  35  38  39  40  41  42  43  44  45  46  47  48 0
 3-21G
 ****


