%nproc=1
%NoSave
%Mem=1900MB
#P OB98/GEN NMR

erre ene a

0 1
  C       64.268      67.766    -114.717
  O       64.485      66.848    -113.643
  P       65.685      67.075    -112.600
  C       68.246      67.046    -112.553
  O       67.087      66.919    -113.371
  C       69.552      67.135    -113.353
  O       69.755      65.942    -114.150
  C       69.646      68.331    -114.302
  O       71.027      68.708    -114.326
  C       69.227      67.726    -115.630
  O       69.630      68.510    -116.745
  C       69.869      66.337    -115.529
  N       69.241      65.368    -116.424
  C       69.768      65.263    -117.713
  O       70.685      66.003    -118.072
  N       69.215      64.353    -118.584
  C       68.165      63.681    -118.225
  N       67.645      62.816    -119.138
  C       67.521      63.824    -116.905
  C       68.112      64.670    -116.062
  O       65.579      66.278    -111.339
  O       65.617      68.645    -112.277
  H       69.312      68.073    -117.563
  H       65.938      68.801    -111.368
  H       66.626      63.264    -116.662
  H       67.719      64.842    -115.065
  H       70.939      66.387    -115.773
  H       68.133      67.638    -115.665
  H       69.017      69.175    -114.005
  H       70.376      67.172    -112.627
  H       68.104      62.765    -120.042
  H       68.292      66.179    -111.882
  H       66.769      62.332    -119.007
  H       68.137      67.936    -111.921
  P       71.533      70.125    -113.782
  C       72.654      72.166    -114.848
  O       71.826      71.035    -115.067
  O       72.656      70.056    -112.799
  O       70.234      70.807    -113.135
  H       70.511      71.530    -112.542
  H       72.953      72.581    -115.814
  H       73.556      71.885    -114.286
  H       72.099      72.926    -114.290
  H       63.428      67.444    -115.297
  H       65.138      67.800    -115.338
  H       64.075      68.741    -114.320

 3  4  5  6  7  8  9  10  11  12  13  23  27  28  29  30  32 0
 6-311+G(2d,p)
 ****
 34  35 0
 6-311+G(2d,p)
 ****
 1  2  14  15  16  17  18  19  20  21  22  24  25  26 0
 3-21G
 ****
 31  33  36  37  38  39  40  41  42  43  44  45  46 0
 3-21G
 ****


