%nproc=1
%NoSave
%Mem=1900MB
#P OB98/GEN NMR

erre ene a

0 1
  C      -95.887    -431.863    -893.500
  O      -96.424    -430.981    -892.530
  P      -97.717    -431.478    -891.730
  C     -100.030    -432.469    -892.410
  O      -98.785    -431.916    -892.850
  C     -101.191    -431.570    -892.830
  O     -101.134    -431.295    -894.230
  C     -102.572    -432.181    -892.590
  O     -102.924    -432.100    -891.220
  C     -103.425    -431.325    -893.500
  O     -103.856    -430.122    -892.820
  C     -102.471    -430.985    -894.670
  N     -102.813    -431.696    -895.890
  C     -103.600    -430.982    -896.800
  O     -103.992    -429.840    -896.520
  N     -103.970    -431.605    -897.980
  C     -103.573    -432.811    -898.220
  N     -103.976    -433.374    -899.390
  C     -102.770    -433.602    -897.270
  C     -102.410    -432.992    -896.130
  O      -98.335    -430.116    -891.140
  O      -97.456    -432.486    -890.650
  H     -103.052    -429.788    -892.360
  H      -98.847    -430.283    -890.330
  H     -102.461    -434.612    -897.530
  H     -101.818    -433.486    -895.380
  H     -102.487    -429.914    -894.880
  H     -104.330    -431.858    -893.820
  H     -102.582    -433.227    -892.920
  H     -101.102    -430.609    -892.280
  H     -104.542    -432.808    -900.000
  H     -100.025    -432.576    -891.330
  H     -103.702    -434.298    -899.690
  H     -100.148    -433.479    -892.860
  P     -103.867    -433.253    -890.630
  C     -105.688    -434.606    -891.850
  O     -105.106    -433.320    -891.650
  O     -104.488    -432.541    -889.350
  O     -103.219    -434.555    -890.290
  H     -105.044    -433.179    -888.840
  H     -106.613    -434.481    -892.400
  H     -105.919    -435.063    -890.870
  H     -105.001    -435.234    -892.400
  H      -95.031    -431.412    -893.958
  H      -96.626    -432.065    -894.247
  H      -95.598    -432.779    -893.028

 3  4  5  6  7  8  9  10  11  12  13  21  23  27  28  29  30  32 0
 6-311+G(2d,p)
 ****
 34  35 0
 6-311+G(2d,p)
 ****
 1  2  14  15  16  17  18  19  20  22  24  25  26 0
 3-21G
 ****
 31  33  36  37  38  39  40  41  42  43  44  45  46 0
 3-21G
 ****


