%nproc=1
%NoSave
%Mem=1900MB
#P OB98/GEN NMR

erre ene a

0 1
  C     -629.193     153.672    -377.163
  O     -629.062     154.918    -377.824
  H     -628.323     153.522    -376.526
  H     -629.237     152.863    -377.900
  H     -630.097     153.665    -376.544
  P     -630.327     155.419    -378.681
  C     -629.746     157.968    -378.428
  O     -630.640     156.904    -378.156
  C     -629.199     158.561    -377.128
  O     -628.505     157.516    -376.398
  C     -628.213     159.716    -377.341
  O     -628.395     160.661    -376.287
  C     -626.857     159.048    -377.192
  O     -625.838     159.982    -376.836
  C     -627.158     157.980    -376.131
  N     -626.193     156.878    -376.160
  C     -625.045     157.039    -375.384
  O     -624.874     158.071    -374.733
  N     -624.093     156.052    -375.392
  C     -624.246     155.018    -376.167
  N     -623.262     154.077    -376.154
  C     -625.428     154.829    -377.038
  C     -626.354     155.786    -376.977
  O     -631.511     154.539    -378.060
  O     -630.164     155.284    -380.156
  H     -626.173     160.541    -376.101
  H     -631.490     154.492    -377.089
  H     -625.508     153.958    -377.672
  H     -627.258     155.721    -377.571
  H     -627.160     158.420    -375.131
  H     -626.564     158.573    -378.139
  H     -628.342     160.209    -378.302
  H     -630.042     158.875    -376.505
  H     -622.462     154.261    -375.556
  H     -630.256     158.757    -378.998
  H     -623.248     153.272    -376.749
  H     -628.929     157.578    -379.047
  P     -629.290     161.961    -376.541
  C     -630.782     162.215    -374.440
  O     -630.703     161.790    -375.795
  O     -629.370     162.429    -377.953
  O     -628.561     163.072    -375.630
  H     -628.551     163.907    -376.132
  H     -631.771     162.045    -374.070
  H     -630.553     163.258    -374.380
  H     -630.081     161.661    -373.851

 6  7  8  9  10  11  12  13  14  15  16  26  30  31  32  33  35 0
 6-311+G(2d,p)
 ****
 37  38 0
 6-311+G(2d,p)
 ****
 1  2  3  4  5  17  18  19  20  21  22  23  24  25 0
 3-21G
 ****
 27  28  29  34  36  39  40  41  42  43  44  45  46 0
 3-21G
 ****


