%nproc=1
%NoSave
%Mem=1900MB
#P OB98/GEN NMR

erre ene a

0 1
  C      -86.546      27.072       5.646
  O      -85.750      26.849       4.500
  H      -86.446      26.213       6.315
  H      -87.598      27.180       5.366
  H      -86.204      27.969       6.170
  P      -85.800      27.977       3.361
  C      -84.892      30.062       4.577
  O      -84.585      28.968       3.722
  C      -83.636      30.890       4.854
  O      -82.711      30.080       5.628
  C      -82.903      31.340       3.582
  O      -82.351      32.641       3.798
  C      -81.775      30.331       3.459
  O      -80.687      30.828       2.686
  C      -81.452      30.065       4.929
  N      -77.086      27.581       4.092
  C      -77.422      28.883       3.972
  N      -78.610      29.467       4.243
  C      -79.483      28.563       4.731
  C      -79.285      27.206       4.907
  C      -78.015      26.709       4.553
  N      -77.674      25.380       4.635
  N      -80.436      26.608       5.383
  C      -81.310      27.591       5.504
  N      -80.783      28.788       5.100
  O      -87.123      28.640       3.166
  O      -85.235      27.188       2.087
  H      -80.398      31.683       3.071
  H      -84.431      26.679       2.309
  H      -76.640      29.544       3.607
  H      -82.331      27.486       5.858
  H      -80.803      30.836       5.364
  H      -82.144      29.420       2.972
  H      -83.544      31.350       2.701
  H      -83.909      31.749       5.481
  H      -85.306      29.697       5.523
  H      -76.740      25.111       4.363
  H      -78.349      24.713       4.980
  H      -85.650      30.675       4.080
  P      -82.736      33.828       2.791
  C      -84.803      35.178       3.535
  O      -83.394      35.028       3.637
  O      -83.500      33.423       1.574
  O      -81.305      34.436       2.393
  H      -81.297      34.631       1.437
  H      -85.118      36.003       4.138
  H      -85.282      34.284       3.875
  H      -85.069      35.360       2.515

 6  7  8  9  10  11  12  13  14  15  25  28  32  33  34  35 0
 6-311+G(2d,p)
 ****
 36  39  40 0
 6-311+G(2d,p)
 ****
 1  2  3  4  5  16  17  18  19  20  21  22  23  24 0
 3-21G
 ****
 26  27  29  30  31  37  38  41  42  43  44  45  46  47 0
 3-21G
 ****
 48 0
 3-21G
 ****


