%nproc=1
%NoSave
%Mem=1900MB
#P OB98/GEN NMR

erre ene a

0 1
  C     -778.924     444.235    -133.696
  O     -779.193     445.302    -132.796
  P     -778.445     445.444    -131.393
  C     -778.608     448.027    -131.663
  O     -778.777     446.909    -130.801
  C     -779.374     449.275    -131.182
  O     -778.849     449.683    -129.901
  C     -779.127     450.445    -132.158
  O     -779.906     450.552    -133.333
  C     -779.109     451.677    -131.261
  O     -780.356     452.380    -131.270
  C     -778.798     451.130    -129.869
  N     -776.202     454.745    -127.452
  C     -777.568     454.584    -127.546
  N     -778.321     455.603    -127.112
  N     -778.126     453.502    -128.057
  C     -777.237     452.605    -128.543
  C     -775.864     452.663    -128.506
  C     -775.259     453.833    -127.900
  O     -774.043     454.060    -127.873
  N     -775.279     451.605    -129.161
  C     -776.300     450.946    -129.652
  N     -777.510     451.531    -129.344
  O     -777.040     444.936    -131.310
  O     -779.358     444.486    -130.456
  H     -780.586     452.578    -132.192
  H     -778.765     444.078    -129.795
  H     -775.827     455.620    -127.126
  H     -776.240     450.043    -130.270
  H     -779.559     451.455    -129.156
  H     -778.368     452.387    -131.625
  H     -777.930     456.489    -126.852
  H     -778.099     450.345    -132.514
  H     -779.323     455.578    -127.307
  H     -780.425     449.051    -131.025
  H     -778.945     447.728    -132.666
  H     -777.534     448.266    -131.740
  P     -779.373     451.079    -134.756
  C     -781.084     449.401    -135.642
  O     -780.451     450.636    -135.879
  O     -778.110     450.162    -135.079
  O     -778.993     452.523    -134.796
  H     -777.531     450.608    -135.728
  H     -781.540     449.042    -136.579
  H     -781.880     449.521    -134.887
  H     -780.379     448.637    -135.278
  H     -779.537     444.340    -134.567
  H     -779.140     443.302    -133.218
  H     -777.893     444.260    -133.980

 3  4  5  6  7  8  9  10  11  12  23  26  30  31 0
 6-311+G(2d,p)
 ****
 33  35  36  37  38 0
 6-311+G(2d,p)
 ****
 1  2  13  14  15  16  17  18  19  20  21  22  24  25 0
 3-21G
 ****
 27  28  29  32  34  39  40  41  42  43  44  45  46  47  48  49 0
 3-21G
 ****


