%nproc=1
%NoSave
%Mem=1900MB
#P OB98/GEN NMR

erre ene a

0 1
  C      129.977    -841.235     592.930
  O      128.677    -840.837     592.560
  H      129.965    -841.530     593.984
  H      130.670    -840.402     592.809
  H      130.309    -842.092     592.339
  P      128.334    -840.617     591.003
  C      129.245    -838.196     590.916
  O      129.402    -839.542     590.466
  C      130.222    -837.280     590.175
  O      129.993    -835.911     590.643
  C      131.707    -837.621     590.423
  O      132.446    -837.335     589.234
  C      132.064    -836.630     591.522
  O      133.447    -836.434     591.612
  C      131.274    -835.399     591.062
  N      131.148    -834.416     592.137
  C      131.701    -833.161     591.903
  O      132.276    -832.852     590.863
  N      131.642    -832.274     592.944
  C      131.188    -832.555     594.203
  O      131.224    -831.745     595.120
  C      130.666    -833.917     594.408
  C      130.671    -834.764     593.381
  O      126.912    -840.310     590.684
  O      128.842    -841.968     590.303
  H      133.661    -835.958     592.442
  H      128.400    -842.094     589.441
  H      132.021    -831.359     592.784
  H      130.319    -834.175     595.399
  H      130.309    -835.791     593.501
  H      131.752    -834.921     590.191
  H      131.704    -836.994     592.494
  H      131.857    -838.663     590.726
  H      129.983    -837.300     589.105
  H      129.452    -838.181     591.992
  H      128.213    -837.872     590.742
  P      132.621    -838.422     588.064
  C      134.608    -839.689     589.087
  O      133.265    -839.787     588.646
  O      133.312    -837.901     586.834
  O      131.118    -838.854     587.693
  H      131.014    -838.869     586.729
  H      134.934    -840.641     589.450
  H      134.673    -838.966     589.873
  H      135.230    -839.386     588.271

 6  7  8  9  10  11  12  13  14  15  16  26  31  32  33  34  35 0
 6-311+G(2d,p)
 ****
 36  37 0
 6-311+G(2d,p)
 ****
 1  2  3  4  5  17  18  19  20  21  22  23  24  25 0
 3-21G
 ****
 27  28  29  30  38  39  40  41  42  43  44  45 0
 3-21G
 ****


