%nproc=1
%NoSave
%Mem=1900MB
#P OB98/GEN NMR

erre ene a

0 1
  C     -898.950    -192.668    -890.880
  O     -898.850    -194.065    -890.720
  H     -900.000    -192.395    -891.050
  H     -898.360    -192.333    -891.740
  H     -898.600    -192.163    -889.960
  P     -897.370    -194.664    -890.580
  C     -895.450    -194.962    -892.320
  O     -896.830    -194.725    -892.090
  C     -895.270    -196.076    -893.350
  O     -895.850    -195.687    -894.620
  C     -893.820    -196.448    -893.670
  O     -893.210    -197.236    -892.650
  C     -894.020    -197.199    -894.950
  O     -894.560    -198.515    -894.670
  C     -895.060    -196.319    -895.670
  N     -894.450    -195.292    -896.520
  C     -894.120    -195.677    -897.830
  O     -894.350    -196.820    -898.220
  N     -893.530    -194.757    -898.660
  C     -893.310    -193.544    -898.240
  N     -892.700    -192.688    -899.090
  C     -893.640    -193.095    -896.860
  C     -894.210    -194.018    -896.070
  O     -897.620    -196.214    -890.220
  O     -896.460    -193.949    -889.620
  H     -893.910    -198.943    -894.050
  H     -896.770    -196.700    -890.260
  H     -893.420    -192.078    -896.560
  H     -894.490    -193.734    -895.070
  H     -895.740    -196.923    -896.280
  H     -893.100    -197.350    -895.500
  H     -893.240    -195.535    -893.860
  H     -895.830    -196.962    -892.990
  H     -892.410    -193.045    -900.000
  H     -894.990    -195.251    -891.380
  H     -892.350    -191.775    -898.810
  H     -894.970    -194.050    -892.700
  P     -891.600    -197.273    -892.620
  C     -889.810    -198.983    -893.390
  O     -891.160    -198.563    -893.470
  O     -891.290    -197.681    -891.090
  O     -890.940    -195.974    -893.020
  H     -890.460    -197.242    -890.800
  H     -889.668    -199.847    -894.005
  H     -889.571    -199.224    -892.375
  H     -889.171    -198.195    -893.730

 6  7  8  9  10  11  12  13  14  15  16  26  30  31  32  33  35 0
 6-311+G(2d,p)
 ****
 37  38 0
 6-311+G(2d,p)
 ****
 1  2  3  4  5  17  18  19  20  21  22  23  24  25 0
 3-21G
 ****
 27  28  29  34  36  39  40  41  42  43  44  45  46 0
 3-21G
 ****


