%nproc=1
%NoSave
%Mem=1900MB
#P OB98/GEN NMR

erre ene a

0 1
  C      230.311      60.518    -139.007
  O      229.194      59.781    -138.531
  P      229.476      58.593    -137.487
  C      230.792      56.323    -137.698
  O      230.139      57.410    -138.339
  C      230.899      55.131    -138.654
  O      229.606      54.507    -138.809
  C      231.354      55.489    -140.065
  O      232.746      55.723    -140.130
  C      230.873      54.269    -140.845
  O      231.798      53.181    -140.688
  C      229.541      53.937    -140.135
  N      228.364      54.422    -140.862
  C      227.804      53.535    -141.777
  O      228.251      52.406    -141.985
  N      226.717      54.001    -142.470
  C      226.186      55.258    -142.383
  O      225.235      55.639    -143.058
  C      226.839      56.159    -141.420
  C      227.882      55.706    -140.715
  O      227.980      58.101    -137.196
  O      230.241      59.036    -136.285
  H      227.389      58.278    -137.949
  H      232.631      53.460    -141.117
  H      226.276      53.369    -143.124
  H      226.454      57.165    -141.330
  H      228.383      56.359    -140.009
  H      229.445      52.856    -139.996
  H      230.774      54.465    -141.921
  H      230.814      56.379    -140.410
  H      231.581      54.392    -138.207
  H      230.220      56.034    -136.811
  H      231.790      56.647    -137.375
  P      233.216      57.106    -140.818
  C      233.124      58.040    -143.258
  O      232.860      56.970    -142.373
  O      234.812      56.955    -140.760
  O      232.682      58.324    -140.136
  H      235.118      56.058    -140.990
  H      233.157      57.649    -144.276
  H      234.079      58.519    -143.030
  H      232.317      58.777    -143.187
  H      229.977      61.271    -139.690
  H      230.987      59.857    -139.508
  H      230.811      60.981    -138.182

 3  4  5  6  7  8  9  10  11  12  13  24  28  29  30  31  32 0
 6-311+G(2d,p)
 ****
 33  34 0
 6-311+G(2d,p)
 ****
 1  2  14  15  16  17  18  19  20  21  22  23  25  26  27 0
 3-21G
 ****
 35  36  37  38  39  40  41  42  43  44  45 0
 3-21G
 ****


