%nproc=1
%NoSave
%Mem=1900MB
#P OB98/GEN NMR

erre ene a

0 1
  C     -122.667    -876.502    -638.480
  O     -122.393    -876.210    -637.127
  P     -121.419    -875.006    -636.719
  C     -123.108    -873.349    -635.720
  O     -122.252    -873.638    -636.820
  C     -122.966    -871.897    -635.283
  O     -121.612    -871.658    -634.818
  C     -123.272    -870.871    -636.387
  O     -123.961    -869.773    -635.767
  C     -121.895    -870.443    -636.849
  O     -121.909    -869.181    -637.490
  C     -121.118    -870.505    -635.528
  N     -119.684    -870.583    -635.730
  C     -118.969    -869.390    -635.669
  O     -119.561    -868.307    -635.577
  N     -117.598    -869.437    -635.724
  C     -117.008    -870.563    -636.020
  N     -115.656    -870.576    -635.994
  C     -117.751    -871.797    -636.335
  C     -119.070    -871.747    -636.134
  O     -120.108    -874.987    -637.427
  O     -121.220    -875.185    -635.142
  H     -120.257    -875.207    -634.940
  H     -120.984    -868.855    -637.572
  H     -117.229    -872.670    -636.690
  H     -119.695    -872.615    -636.319
  H     -121.340    -869.620    -634.912
  H     -121.504    -871.182    -637.560
  H     -123.898    -871.283    -637.180
  H     -123.634    -871.731    -634.423
  H     -115.177    -869.730    -635.734
  H     -122.824    -874.003    -634.895
  H     -115.126    -871.445    -635.889
  H     -124.146    -873.575    -635.986
  P     -124.927    -868.873    -636.681
  C     -127.309    -868.786    -635.659
  O     -126.419    -869.437    -636.537
  O     -124.520    -869.357    -638.156
  O     -124.749    -867.394    -636.576
  H     -124.715    -868.645    -638.796
  H     -128.243    -869.350    -635.636
  H     -127.514    -867.775    -636.004
  H     -126.896    -868.763    -634.646
  H     -123.335    -877.336    -638.537
  H     -121.755    -876.741    -638.985
  H     -123.119    -875.651    -638.944

 3  4  5  6  7  8  9  10  11  12  13  24  27  28  29  30  32 0
 6-311+G(2d,p)
 ****
 34  35 0
 6-311+G(2d,p)
 ****
 1  2  14  15  16  17  18  19  20  21  22  23  25  26 0
 3-21G
 ****
 31  33  36  37  38  39  40  41  42  43  44  45  46 0
 3-21G
 ****


