%nproc=1
%NoSave
%Mem=1900MB
#P OB98/GEN NMR

erre ene a

0 1
  C      851.662    -171.126     758.213
  O      852.899    -171.293     758.879
  H      851.326    -172.100     757.854
  H      851.786    -170.458     757.357
  H      850.909    -170.722     758.896
  P      853.572    -170.032     759.600
  C      853.031    -170.886     761.965
  O      852.824    -169.849     761.012
  C      852.500    -170.462     763.336
  O      853.099    -169.182     763.689
  C      850.980    -170.307     763.385
  O      850.527    -170.764     764.660
  C      850.779    -168.804     763.283
  O      849.556    -168.379     763.895
  C      852.021    -168.272     763.991
  N      850.669    -163.410     764.288
  C      850.154    -164.517     764.938
  N      849.118    -164.311     765.777
  N      850.633    -165.731     764.783
  C      851.680    -165.791     763.926
  C      852.271    -164.768     763.220
  C      851.734    -163.438     763.394
  O      852.134    -162.421     762.835
  N      853.295    -165.234     762.431
  C      853.320    -166.534     762.653
  N      852.355    -166.926     763.545
  O      853.641    -168.787     758.774
  O      855.026    -170.550     760.017
  H      848.885    -169.064     763.705
  H      855.699    -170.237     759.381
  H      850.257    -162.510     764.443
  H      854.012    -167.235     762.198
  H      851.900    -168.231     765.084
  H      850.763    -168.502     762.228
  H      848.720    -163.404     765.958
  H      850.463    -170.836     762.586
  H      848.744    -165.108     766.279
  H      852.851    -171.192     764.079
  H      854.107    -171.088     762.029
  H      852.526    -171.795     761.632
  P      849.870    -172.237     764.754
  C      851.141    -173.020     766.857
  O      850.935    -173.206     765.462
  O      849.258    -172.753     763.498
  O      848.766    -172.044     765.910
  H      848.032    -172.667     765.733
  H      851.869    -173.722     767.207
  H      850.219    -173.173     767.377
  H      851.490    -172.025     767.036

 6  7  8  9  10  11  12  13  14  15  26  29  33  34 0
 6-311+G(2d,p)
 ****
 36  38  39  40  41 0
 6-311+G(2d,p)
 ****
 1  2  3  4  5  16  17  18  19  20  21  22  23  24  25 0
 3-21G
 ****
 27  28  30  31  32  35  37  42  43  44  45  46  47 0
 3-21G
 ****
 48  49 0
 3-21G
 ****


