%nproc=1
%NoSave
%Mem=1900MB
#P OB98/GEN NMR

erre ene a

0 1
  C       18.364     840.080     338.512
  O       17.685     841.289     338.798
  H       17.645     839.266     338.526
  H       19.128     839.891     339.273
  H       18.825     840.134     337.514
  P       18.584     842.620     338.845
  C       17.058     844.279     340.128
  O       17.557     843.860     338.874
  C       17.149     845.792     340.256
  O       18.526     846.224     340.308
  C       16.488     846.574     339.127
  O       15.092     846.699     339.335
  C       17.208     847.901     339.214
  O       16.663     848.749     340.249
  C       18.647     847.474     339.571
  N       21.505     849.851     336.144
  C       20.813     850.347     337.225
  N       20.825     851.696     337.378
  N       20.130     849.597     338.069
  C       20.165     848.282     337.755
  C       20.840     847.666     336.726
  C       21.611     848.492     335.827
  O       22.305     848.106     334.893
  N       20.657     846.309     336.762
  C       19.851     846.107     337.784
  N       19.512     847.287     338.418
  O       19.219     842.703     337.377
  O       19.641     842.646     339.902
  H       15.734     848.949     340.048
  H       20.092     843.127     337.427
  H       22.012     850.464     335.538
  H       19.478     845.147     338.118
  H       19.146     848.190     340.235
  H       17.139     848.478     338.286
  H       21.028     852.315     336.614
  H       16.708     846.105     338.160
  H       20.304     852.075     338.164
  H       16.690     846.074     341.229
  H       17.646     843.812     340.932
  H       16.005     843.955     340.221
  P       14.117     845.822     338.400
  C       12.545     847.829     337.857
  O       12.680     846.546     338.443
  O       13.880     844.482     339.254
  O       14.658     845.522     337.031
  H       13.534     843.773     338.670
  H       11.536     848.168     337.969
  H       12.789     847.773     336.817
  H       13.208     848.514     338.343

 6  7  8  9  10  11  12  13  14  15  26  29  33  34 0
 6-311+G(2d,p)
 ****
 36  38  39  40  41 0
 6-311+G(2d,p)
 ****
 1  2  3  4  5  16  17  18  19  20  21  22  23  24  25 0
 3-21G
 ****
 27  28  30  31  32  35  37  42  43  44  45  46  47 0
 3-21G
 ****
 48  49 0
 3-21G
 ****


