%nproc=1
%NoSave
%Mem=1900MB
#P OB98/GEN NMR

erre ene a

0 1
  C      154.921     -77.870     -25.414
  O      156.266     -78.049     -25.019
  H      154.873     -77.435     -26.415
  H      154.426     -78.845     -25.427
  H      154.404     -77.221     -24.700
  P      157.194     -76.741     -25.040
  C      157.611     -74.818     -26.726
  O      157.044     -76.101     -26.504
  C      157.023     -74.195     -27.987
  O      155.592     -74.075     -27.863
  C      157.520     -72.787     -28.293
  O      158.809     -72.796     -28.892
  C      156.452     -72.318     -29.270
  O      156.731     -72.844     -30.582
  C      155.179     -72.967     -28.706
  N      152.627     -68.511     -28.674
  C      153.349     -69.131     -29.636
  N      154.008     -70.305     -29.571
  C      153.859     -70.868     -28.362
  C      153.154     -70.358     -27.284
  C      152.522     -69.117     -27.470
  N      151.802     -68.488     -26.478
  N      153.210     -71.220     -26.212
  C      153.937     -72.237     -26.630
  N      154.359     -72.066     -27.922
  O      158.682     -77.338     -25.049
  O      156.992     -75.796     -23.903
  H      155.919     -72.722     -31.109
  H      159.261     -76.752     -24.526
  H      153.403     -68.611     -30.591
  H      154.178     -73.111     -26.039
  H      154.555     -73.390     -29.503
  H      156.396     -71.232     -29.358
  H      157.495     -72.154     -27.399
  H      157.232     -74.871     -28.826
  H      158.695     -74.915     -26.846
  H      151.215     -67.710     -26.727
  H      151.721     -68.954     -25.580
  H      157.405     -74.186     -25.856
  P      159.606     -71.403     -28.951
  C      159.136     -69.211     -30.258
  O      159.027     -70.630     -30.232
  O      161.072     -71.845     -29.419
  O      159.638     -70.635     -27.673
  H      161.728     -71.188     -29.118
  H      158.711     -68.837     -31.166
  H      160.168     -68.932     -30.206
  H      158.612     -68.798     -29.422

 6  7  8  9  10  11  12  13  14  15  25  28  32  33  34  35 0
 6-311+G(2d,p)
 ****
 36  39  40 0
 6-311+G(2d,p)
 ****
 1  2  3  4  5  16  17  18  19  20  21  22  23  24 0
 3-21G
 ****
 26  27  29  30  31  37  38  41  42  43  44  45  46  47  48 0
 3-21G
 ****


