%nproc=1
%NoSave
%Mem=1900MB
#P OB98/GEN NMR

erre ene a

0 1
  C     -216.431    -583.442    1039.872
  O     -215.585    -583.796    1040.947
  P     -215.345    -582.782    1042.181
  C     -215.297    -582.956    1044.738
  O     -215.580    -583.622    1043.498
  C     -215.489    -583.927    1045.910
  O     -216.889    -584.292    1046.068
  C     -214.760    -585.257    1045.766
  O     -213.346    -585.224    1045.752
  C     -215.436    -586.088    1046.816
  O     -214.888    -585.822    1048.134
  C     -216.905    -585.575    1046.737
  N     -217.787    -586.547    1046.075
  C     -217.786    -587.818    1046.576
  O     -217.091    -588.180    1047.572
  N     -218.586    -588.741    1045.949
  C     -219.343    -588.508    1044.820
  O     -220.001    -589.375    1044.243
  C     -219.258    -587.110    1044.314
  C     -218.527    -586.202    1044.941
  O     -216.131    -581.495    1042.101
  O     -213.756    -582.563    1042.160
  H     -214.740    -584.859    1048.192
  H     -213.239    -583.369    1042.291
  H     -218.599    -589.689    1046.308
  H     -219.868    -586.895    1043.421
  H     -218.474    -585.225    1044.569
  H     -217.305    -585.399    1047.762
  H     -215.310    -587.172    1046.651
  H     -215.039    -585.690    1044.794
  H     -215.202    -583.402    1046.833
  H     -216.007    -582.113    1044.849
  H     -214.266    -582.563    1044.721
  P     -212.438    -586.472    1045.442
  C     -209.993    -586.844    1044.561
  O     -211.121    -585.978    1044.611
  O     -213.143    -587.697    1044.908
  O     -211.800    -586.821    1046.875
  H     -211.654    -587.777    1046.926
  H     -209.211    -586.312    1043.987
  H     -210.231    -587.757    1044.014
  H     -209.623    -587.058    1045.573
  H     -216.458    -584.241    1039.161
  H     -216.057    -582.558    1039.400
  H     -217.419    -583.259    1040.241

 3  4  5  6  7  8  9  10  11  12  13  23  28  29  30  31  32 0
 6-311+G(2d,p)
 ****
 33  34 0
 6-311+G(2d,p)
 ****
 1  2  14  15  16  17  18  19  20  21  22  24  25  26  27 0
 3-21G
 ****
 35  36  37  38  39  40  41  42  43  44  45 0
 3-21G
 ****


