%nproc=1
%NoSave
%Mem=1900MB
#P OB98/GEN NMR

erre ene a

0 1
  C      -47.261     425.224     362.757
  O      -47.227     426.575     362.345
  H      -47.583     424.608     361.914
  H      -47.979     425.102     363.574
  H      -46.271     424.891     363.080
  P      -46.583     427.626     363.373
  C      -47.652     429.393     361.793
  O      -47.341     429.025     363.131
  C      -48.878     430.302     361.769
  O      -50.080     429.533     362.008
  C      -48.864     431.405     362.824
  O      -48.093     432.525     362.410
  C      -50.342     431.745     362.896
  O      -50.707     432.552     361.758
  C      -50.990     430.357     362.789
  N      -54.352     429.645     366.519
  C      -54.460     430.379     365.357
  N      -55.629     431.032     365.158
  N      -53.509     430.481     364.462
  C      -52.391     429.786     364.797
  C      -52.169     429.017     365.917
  C      -53.230     428.910     366.889
  O      -53.199     428.249     367.926
  N      -50.918     428.455     365.896
  C      -50.378     428.902     364.779
  N      -51.230     429.723     364.075
  O      -45.122     427.890     362.767
  O      -46.509     427.172     364.792
  H      -50.193     433.380     361.822
  H      -44.494     428.014     363.501
  H      -55.112     429.609     367.175
  H      -49.381     428.665     364.434
  H      -51.949     430.386     362.260
  H      -50.601     432.311     363.790
  H      -56.383     431.043     365.831
  H      -48.528     431.023     363.800
  H      -55.744     431.553     364.297
  H      -48.958     430.734     360.759
  H      -47.860     428.488     361.212
  H      -46.791     429.906     361.358
  P      -46.593     432.654     362.971
  C      -46.388     435.161     362.306
  O      -46.411     434.196     363.365
  O      -45.701     432.495     361.658
  O      -46.227     431.662     364.023
  H      -44.798     432.192     361.894
  H      -46.261     436.140     362.718
  H      -47.310     435.119     361.765
  H      -45.576     434.945     361.644

 6  7  8  9  10  11  12  13  14  15  26  29  33  34 0
 6-311+G(2d,p)
 ****
 36  38  39  40  41 0
 6-311+G(2d,p)
 ****
 1  2  3  4  5  16  17  18  19  20  21  22  23  24  25 0
 3-21G
 ****
 27  28  30  31  32  35  37  42  43  44  45  46  47 0
 3-21G
 ****
 48  49 0
 3-21G
 ****


