%nproc=1
%NoSave
%Mem=1900MB
#P OB98/GEN NMR

erre ene a

0 1
  C     -293.292     121.322     715.187
  O     -292.550     120.198     714.773
  H     -292.604     122.079     715.563
  H     -293.975     121.033     715.994
  H     -293.868     121.746     714.358
  P     -293.230     119.143     713.779
  C     -295.628     119.280     714.738
  O     -294.470     118.466     714.538
  C     -296.503     118.752     715.872
  O     -296.958     117.419     715.556
  C     -295.750     118.656     717.201
  O     -295.749     119.849     717.969
  C     -296.508     117.543     717.916
  O     -297.624     118.066     718.663
  C     -296.998     116.652     716.774
  N     -296.973     111.586     716.077
  C     -298.037     112.420     716.344
  N     -299.242     111.813     716.486
  N     -297.933     113.715     716.483
  C     -296.648     114.157     716.420
  C     -295.509     113.425     716.178
  C     -295.655     112.003     715.956
  O     -294.740     111.226     715.699
  N     -294.387     114.216     716.235
  C     -294.845     115.400     716.589
  N     -296.217     115.430     716.636
  O     -292.164     117.941     713.726
  O     -293.525     119.653     712.404
  H     -297.282     118.696     719.321
  H     -292.200     117.516     712.849
  H     -297.128     110.599     715.961
  H     -294.228     116.280     716.775
  H     -298.043     116.343     716.921
  H     -295.858     117.029     718.644
  H     -299.372     110.819     716.476
  H     -294.716     118.317     717.045
  H     -300.016     112.357     716.871
  H     -297.401     119.381     715.965
  H     -296.183     119.259     713.796
  H     -295.339     120.317     714.922
  P     -294.388     120.437     718.589
  C     -294.445     118.628     720.505
  O     -294.308     119.985     720.114
  O     -294.694     121.999     718.676
  O     -293.153     120.137     717.810
  H     -294.291     122.475     717.917
  H     -294.359     118.553     721.569
  H     -293.677     118.044     720.043
  H     -295.403     118.263     720.198

 6  7  8  9  10  11  12  13  14  15  26  29  33  34 0
 6-311+G(2d,p)
 ****
 36  38  39  40  41 0
 6-311+G(2d,p)
 ****
 1  2  3  4  5  16  17  18  19  20  21  22  23  24  25 0
 3-21G
 ****
 27  28  30  31  32  35  37  42  43  44  45  46  47 0
 3-21G
 ****
 48  49 0
 3-21G
 ****


