%nproc=1
%NoSave
%Mem=1900MB
#P OB98/GEN NMR

erre ene a

0 1
  C      -21.355     105.394     238.118
  O      -22.558     105.790     237.487
  H      -20.733     106.279     238.272
  H      -20.813     104.687     237.483
  H      -21.571     104.940     239.088
  P      -23.628     104.628     237.194
  C      -23.496     102.657     235.518
  O      -22.788     103.508     236.410
  C      -22.777     101.318     235.369
  O      -22.503     100.745     236.662
  C      -23.566     100.262     234.606
  O      -23.453     100.459     233.207
  C      -22.855      98.994     235.056
  O      -21.631      98.833     234.311
  C      -22.533      99.297     236.532
  N      -23.252      95.834     240.253
  C      -22.244      96.006     239.372
  N      -22.139      96.921     238.383
  C      -23.221      97.714     238.350
  C      -24.328      97.658     239.187
  C      -24.316      96.666     240.184
  N      -25.343      96.501     241.089
  N      -25.246      98.631     238.852
  C      -24.677      99.301     237.869
  N      -23.471      98.761     237.503
  O      -24.902     105.065     236.561
  O      -23.780     103.980     238.653
  H      -21.280      99.726     234.127
  H      -22.920     103.952     239.107
  H      -21.407      95.319     239.472
  H      -25.090     100.185     237.398
  H      -21.542      98.921     236.816
  H      -23.453      98.097     234.884
  H      -24.610     100.224     234.937
  H      -21.809     101.509     234.888
  H      -23.602     103.134     234.538
  H      -25.333      95.666     241.657
  H      -26.185      97.041     240.955
  H      -24.497     102.504     235.937
  P      -24.472      99.747     232.194
  C      -24.658      97.438     231.075
  O      -23.999      98.219     232.067
  O      -24.662     100.446     230.893
  O      -25.840      99.637     233.014
  H      -26.604      99.796     232.427
  H      -24.262      96.444     231.083
  H      -24.500      97.877     230.112
  H      -25.707      97.406     231.285

 6  7  8  9  10  11  12  13  14  15  25  28  32  33  34  35 0
 6-311+G(2d,p)
 ****
 36  39  40 0
 6-311+G(2d,p)
 ****
 1  2  3  4  5  16  17  18  19  20  21  22  23  24 0
 3-21G
 ****
 26  27  29  30  31  37  38  41  42  43  44  45  46  47 0
 3-21G
 ****
 48 0
 3-21G
 ****


