%nproc=1
%NoSave
%Mem=1900MB
#P OB98/GEN NMR

erre ene a

0 1
  C      147.745    -107.967    -161.046
  O      146.550    -108.312    -161.719
  P      145.200    -107.472    -161.514
  C      143.466    -107.287    -159.625
  O      144.780    -107.688    -159.980
  C      143.277    -107.268    -158.108
  O      144.211    -106.323    -157.514
  C      141.868    -106.879    -157.641
  O      141.618    -107.625    -156.445
  C      142.024    -105.402    -157.324
  O      140.995    -104.912    -156.476
  C      143.441    -105.383    -156.735
  N      144.020    -104.045    -156.752
  C      143.899    -103.292    -155.581
  O      143.255    -103.733    -154.625
  N      144.456    -102.040    -155.536
  C      144.998    -101.543    -156.606
  N      145.539    -100.300    -156.502
  C      145.035    -102.254    -157.897
  C      144.547    -103.493    -157.895
  O      144.123    -107.750    -162.505
  O      145.698    -105.950    -161.522
  H      141.227    -103.997    -156.203
  H      145.880    -105.653    -162.450
  H      145.445    -101.779    -158.776
  H      144.533    -104.094    -158.793
  H      143.430    -105.746    -155.696
  H      141.994    -104.822    -158.254
  H      141.093    -107.071    -158.386
  H      143.535    -108.263    -157.722
  H      145.504     -99.854    -155.593
  H      142.762    -108.006    -160.055
  H      146.053     -99.857    -157.249
  H      143.245    -106.305    -160.055
  P      140.190    -107.583    -155.721
  C      138.835    -105.851    -154.406
  O      139.947    -106.071    -155.257
  O      139.993    -108.606    -154.650
  O      139.133    -107.772    -156.912
  H      138.264    -108.012    -156.538
  H      138.932    -104.868    -153.938
  H      138.784    -106.616    -153.624
  H      137.914    -105.876    -154.998
  H      148.520    -108.651    -161.322
  H      147.586    -108.016    -159.989
  H      148.033    -106.973    -161.318

 3  4  5  6  7  8  9  10  11  12  13  23  27  28  29  30  32 0
 6-311+G(2d,p)
 ****
 34  35 0
 6-311+G(2d,p)
 ****
 1  2  14  15  16  17  18  19  20  21  22  24  25  26 0
 3-21G
 ****
 31  33  36  37  38  39  40  41  42  43  44  45  46 0
 3-21G
 ****


