%nproc=1
%NoSave
%Mem=1900MB
#P OB98/GEN NMR

erre ene a

0 1
  C      621.993    -405.435    -446.229
  O      622.819    -404.660    -447.078
  P      624.131    -405.287    -447.761
  C      625.643    -403.530    -446.598
  O      625.328    -404.912    -446.762
  C      626.795    -403.376    -445.621
  O      626.314    -403.550    -444.269
  C      627.928    -404.387    -445.792
  O      628.737    -404.059    -446.911
  C      628.610    -404.299    -444.434
  O      629.459    -403.144    -444.376
  C      627.406    -404.105    -443.489
  N      627.000    -405.340    -442.828
  C      627.980    -405.999    -442.078
  O      629.120    -405.548    -441.986
  N      627.637    -407.158    -441.411
  C      626.432    -407.624    -441.512
  N      626.141    -408.737    -440.779
  C      625.382    -406.999    -442.336
  C      625.731    -405.872    -442.956
  O      624.357    -404.886    -449.174
  O      623.981    -406.862    -447.547
  H      630.082    -403.214    -445.131
  H      623.488    -407.310    -448.273
  H      624.401    -407.429    -442.392
  H      625.015    -405.340    -443.561
  H      627.646    -403.358    -442.724
  H      629.210    -405.184    -444.197
  H      627.513    -405.388    -445.937
  H      627.193    -402.353    -445.710
  H      626.827    -409.026    -440.098
  H      624.758    -403.021    -446.201
  H      625.177    -408.988    -440.569
  H      625.893    -403.105    -447.578
  P      629.864    -405.107    -447.341
  C      631.682    -403.365    -446.702
  O      631.194    -404.685    -446.540
  O      630.177    -404.709    -448.859
  O      629.464    -406.539    -447.204
  H      629.728    -405.329    -449.471
  H      632.422    -403.167    -445.930
  H      630.871    -402.635    -446.610
  H      632.168    -403.270    -447.685
  H      621.178    -404.836    -445.880
  H      622.565    -405.781    -445.393
  H      621.611    -406.274    -446.772

 3  4  5  6  7  8  9  10  11  12  13  23  27  28  29  30  32 0
 6-311+G(2d,p)
 ****
 34  35 0
 6-311+G(2d,p)
 ****
 1  2  14  15  16  17  18  19  20  21  22  24  25  26 0
 3-21G
 ****
 31  33  36  37  38  39  40  41  42  43  44  45  46 0
 3-21G
 ****


