%nproc=1
%NoSave
%Mem=1900MB
#P OB98/GEN NMR

erre ene a

0 1
  C      168.849     537.213     710.307
  O      167.981     538.293     710.021
  H      168.843     536.529     709.455
  H      168.507     536.673     711.195
  H      169.866     537.582     710.461
  P      167.813     539.402     711.165
  C      168.651     541.282     709.613
  O      167.554     540.770     710.363
  C      168.151     542.212     708.500
  O      167.630     541.403     707.417
  C      167.032     543.156     708.960
  O      167.208     544.433     708.332
  C      165.767     542.500     708.425
  O      164.714     543.435     708.219
  C      166.287     541.836     707.144
  N      161.630     540.466     705.550
  C      162.208     541.674     705.726
  N      163.463     541.947     706.140
  C      164.161     540.812     706.343
  C      163.699     539.514     706.212
  C      162.367     539.361     705.806
  N      161.764     538.126     705.653
  N      164.704     538.619     706.549
  C      165.744     539.368     706.868
  N      165.457     540.705     706.768
  O      168.904     539.458     712.182
  O      166.359     539.063     711.744
  H      164.453     543.799     709.093
  H      165.724     538.883     711.024
  H      161.578     542.535     705.509
  H      166.717     538.994     707.173
  H      166.302     542.525     706.296
  H      165.423     541.743     709.141
  H      167.004     543.275     710.046
  H      169.006     542.771     708.103
  H      169.220     540.457     709.164
  H      160.809     538.102     705.338
  H      162.302     537.292     705.816
  H      169.308     541.824     710.298
  P      166.340     545.668     708.873
  C      168.351     547.239     709.298
  O      167.140     547.030     708.561
  O      165.804     545.536     710.259
  O      165.142     545.733     707.801
  H      164.316     545.973     708.270
  H      168.790     548.170     709.006
  H      169.035     546.443     709.093
  H      168.132     547.260     710.345

 6  7  8  9  10  11  12  13  14  15  25  28  32  33  34  35 0
 6-311+G(2d,p)
 ****
 36  39  40 0
 6-311+G(2d,p)
 ****
 1  2  3  4  5  16  17  18  19  20  21  22  23  24 0
 3-21G
 ****
 26  27  29  30  31  37  38  41  42  43  44  45  46  47 0
 3-21G
 ****
 48 0
 3-21G
 ****


