%nproc=1
%NoSave
%Mem=1900MB
#P OB98/GEN NMR

erre ene a

0 1
  C      149.250    -261.512      44.989
  O      150.041    -262.646      45.293
  H      148.419    -261.464      45.696
  H      148.848    -261.607      43.977
  H      149.838    -260.594      45.073
  P      151.486    -262.726      44.600
  C      152.228    -260.582      45.857
  O      152.078    -261.234      44.606
  C      152.794    -259.181      45.661
  O      152.895    -258.494      46.927
  C      154.187    -259.146      45.043
  O      154.135    -259.245      43.624
  C      154.655    -257.766      45.474
  O      154.040    -256.764      44.639
  C      154.097    -257.676      46.901
  N      158.385    -256.708      49.437
  C      157.803    -256.023      48.386
  N      158.460    -254.929      47.943
  N      156.682    -256.380      47.817
  C      156.145    -257.503      48.347
  C      156.628    -258.275      49.385
  C      157.861    -257.857      50.016
  O      158.413    -258.425      50.958
  N      155.812    -259.341      49.642
  C      154.850    -259.232      48.750
  N      155.004    -258.137      47.939
  O      151.125    -262.987      43.061
  O      152.387    -263.788      45.134
  H      154.383    -255.897      44.929
  H      151.267    -263.932      42.860
  H      159.253    -256.397      49.834
  H      154.013    -259.916      48.657
  H      153.807    -256.654      47.169
  H      155.733    -257.637      45.378
  H      159.341    -254.612      48.322
  H      154.843    -259.909      45.479
  H      158.052    -254.412      47.177
  H      152.084    -258.615      45.041
  H      152.909    -261.165      46.487
  H      151.247    -260.522      46.347
  P      155.518    -259.286      42.815
  C      155.513    -261.860      43.148
  O      156.261    -260.651      43.220
  O      156.384    -258.157      43.549
  O      155.408    -259.021      41.350
  H      156.518    -257.395      42.947
  H      156.132    -262.681      43.444
  H      155.176    -262.012      42.144
  H      154.668    -261.796      43.802

 6  7  8  9  10  11  12  13  14  15  26  29  33  34 0
 6-311+G(2d,p)
 ****
 36  38  39  40  41 0
 6-311+G(2d,p)
 ****
 1  2  3  4  5  16  17  18  19  20  21  22  23  24  25 0
 3-21G
 ****
 27  28  30  31  32  35  37  42  43  44  45  46  47 0
 3-21G
 ****
 48  49 0
 3-21G
 ****


