%nproc=1
%NoSave
%Mem=1900MB
#P OB98/GEN NMR

erre ene a

0 1
  C     -970.131     398.705    -357.735
  O     -971.368     399.212    -357.280
  H     -970.328     397.920    -358.468
  H     -969.560     398.274    -356.907
  H     -969.544     399.492    -358.220
  P     -971.358     400.384    -356.189
  C     -973.921     400.015    -356.004
  O     -972.681     400.116    -355.312
  C     -975.058     399.732    -355.023
  O     -974.944     398.412    -354.452
  C     -975.103     400.669    -353.811
  O     -975.578     401.981    -354.132
  C     -976.073     399.907    -352.928
  O     -977.422     400.072    -353.430
  C     -975.570     398.455    -353.137
  N     -974.633     398.030    -352.096
  C     -975.146     397.926    -350.799
  O     -976.321     398.184    -350.562
  N     -974.291     397.537    -349.777
  C     -973.040     397.321    -350.040
  N     -972.241     396.958    -349.000
  C     -972.448     397.442    -351.390
  C     -973.296     397.797    -352.358
  O     -971.209     401.778    -356.714
  O     -970.210     399.963    -355.156
  H     -978.001     399.560    -352.828
  H     -970.151     400.664    -354.451
  H     -971.393     397.271    -351.553
  H     -972.943     397.912    -353.385
  H     -976.424     397.746    -353.165
  H     -976.063     400.239    -351.899
  H     -974.124     400.716    -353.316
  H     -976.001     399.759    -355.594
  H     -972.657     396.879    -348.087
  H     -973.834     399.206    -356.742
  H     -971.231     396.855    -349.094
  H     -974.144     400.946    -356.531
  P     -975.695     403.017    -352.898
  C     -977.471     404.299    -354.329
  O     -977.118     403.736    -353.074
  O     -974.631     404.136    -353.281
  O     -975.468     402.409    -351.539
  H     -973.792     403.989    -352.781
  H     -978.447     404.733    -354.263
  H     -977.471     403.533    -355.076
  H     -976.761     405.055    -354.593

 6  7  8  9  10  11  12  13  14  15  16  26  30  31  32  33  35 0
 6-311+G(2d,p)
 ****
 37  38 0
 6-311+G(2d,p)
 ****
 1  2  3  4  5  17  18  19  20  21  22  23  24  25 0
 3-21G
 ****
 27  28  29  34  36  39  40  41  42  43  44  45  46 0
 3-21G
 ****


