%nproc=1
%NoSave
%Mem=1900MB
#P OB98/GEN NMR

erre ene a

0 1
  C     -164.901     -66.922      67.384
  O     -165.735     -65.795      67.108
  P     -165.105     -64.525      66.361
  C     -167.115     -63.404      65.207
  O     -166.212     -63.362      66.300
  C     -168.401     -64.152      65.589
  O     -168.910     -63.677      66.868
  C     -169.521     -63.960      64.559
  O     -170.337     -65.140      64.474
  C     -170.361     -62.861      65.178
  O     -171.685     -62.844      64.647
  C     -170.263     -63.225      66.656
  N     -173.952     -60.856      69.302
  C     -173.954     -61.999      68.585
  N     -172.930     -62.581      67.927
  C     -171.805     -61.863      68.075
  C     -171.645     -60.683      68.785
  C     -172.789     -60.168      69.416
  N     -172.792     -58.985      70.121
  N     -170.341     -60.235      68.706
  C     -169.738     -61.103      67.922
  N     -170.569     -62.122      67.542
  O     -164.416     -64.809      65.069
  O     -164.071     -63.956      67.448
  H     -172.222     -62.266      65.218
  H     -163.244     -63.689      66.995
  H     -174.910     -62.513      68.527
  H     -168.713     -61.032      67.587
  H     -170.934     -64.054      66.916
  H     -169.902     -61.884      64.978
  H     -169.177     -63.698      63.554
  H     -168.168     -65.215      65.710
  H     -166.640     -63.891      64.353
  H     -173.684     -58.639      70.440
  H     -171.975     -58.394      70.088
  H     -167.333     -62.379      64.884
  P     -169.889     -66.228      63.373
  C     -169.592     -68.477      64.674
  O     -170.430     -67.637      63.911
  O     -168.439     -66.166      63.028
  O     -170.856     -65.874      62.148
  H     -171.797     -65.801      62.381
  H     -170.181     -69.316      65.050
  H     -169.176     -67.937      65.532
  H     -168.782     -68.867      64.055
  H     -165.474     -67.676      67.883
  H     -164.088     -66.619      68.010
  H     -164.517     -67.315      66.466

 3  4  5  6  7  8  9  10  11  12  22  25  29  30  31  32 0
 6-311+G(2d,p)
 ****
 33  36  37 0
 6-311+G(2d,p)
 ****
 1  2  13  14  15  16  17  18  19  20  21  23  24  26 0
 3-21G
 ****
 27  28  34  35  38  39  40  41  42  43  44  45  46  47  48 0
 3-21G
 ****


