%nproc=1
%NoSave
%Mem=1900MB
#P OB98/GEN NMR

erre ene a

0 1
  C        4.311    -890.321     397.769
  O        3.878    -891.471     397.092
  H        5.333    -890.451     398.147
  H        4.301    -889.471     397.076
  H        3.634    -890.091     398.605
  P        3.853    -892.841     397.935
  C        1.581    -893.901     397.274
  O        2.997    -893.911     397.090
  C        0.909    -894.611     396.096
  O        0.782    -893.671     394.990
  C        1.641    -895.871     395.584
  O        0.796    -897.001     395.650
  C        1.932    -895.571     394.120
  O        1.741    -896.691     393.270
  C        0.954    -894.441     393.792
  N        0.146    -893.071     388.942
  C       -0.690    -893.591     389.875
  N       -0.443    -893.831     391.183
  C        0.812    -893.451     391.503
  C        1.760    -892.881     390.673
  C        1.399    -892.711     389.323
  N        2.260    -892.221     388.371
  N        2.929    -892.621     391.384
  C        2.711    -893.081     392.589
  N        1.449    -893.611     392.716
  O        2.908    -892.481     399.185
  O        5.194    -893.331     398.385
  H        2.371    -897.381     393.564
  H        3.329    -892.781     400.006
  H       -1.666    -893.851     389.522
  H        3.422    -893.101     393.403
  H       -0.041    -894.831     393.509
  H        2.969    -895.221     394.028
  H        2.574    -896.051     396.141
  H       -0.120    -894.881     396.402
  H        1.225    -892.861     397.317
  H        1.950    -892.251     387.420
  H        3.225    -892.051     388.627
  H        1.341    -894.391     398.216
  P        1.501    -898.431     395.996
  C       -0.740    -899.181     397.065
  O        0.341    -899.511     396.209
  O        2.068    -898.191     397.479
  O        2.584    -898.801     395.030
  H        2.851    -898.761     397.632
  H       -1.428    -900.000     397.103
  H       -1.240    -898.313     396.690
  H       -0.368    -898.981     398.048

 6  7  8  9  10  11  12  13  14  15  25  28  32  33  34  35 0
 6-311+G(2d,p)
 ****
 36  39  40 0
 6-311+G(2d,p)
 ****
 1  2  3  4  5  16  17  18  19  20  21  22  23  24 0
 3-21G
 ****
 26  27  29  30  31  37  38  41  42  43  44  45  46  47  48 0
 3-21G
 ****


