%nproc=1
%NoSave
%Mem=1900MB
#P OB98/GEN NMR

erre ene a

0 1
  C      512.140     794.630      53.786
  O      511.364     795.820      53.721
  P      510.471     796.067      52.389
  C      510.318     798.442      53.456
  O      510.345     797.667      52.256
  C      510.271     799.938      53.137
  O      511.335     800.297      52.265
  C      508.980     800.380      52.442
  O      507.916     800.580      53.352
  C      509.428     801.708      51.851
  O      509.424     802.733      52.868
  C      510.883     801.405      51.433
  N      513.455     802.255      47.095
  C      513.537     802.824      48.324
  N      512.796     802.545      49.419
  C      511.894     801.590      49.163
  C      511.674     800.947      47.950
  C      512.524     801.286      46.886
  N      512.463     800.685      45.645
  N      510.650     800.019      48.064
  C      510.267     800.117      49.334
  N      511.006     801.041      50.034
  O      509.014     795.616      52.843
  O      510.939     795.346      51.184
  H      509.512     803.586      52.397
  H      508.472     795.378      52.058
  H      514.272     803.608      48.437
  H      509.467     799.531      49.780
  H      511.550     802.238      51.621
  H      508.788     802.056      51.049
  H      508.720     799.685      51.633
  H      510.394     800.475      54.100
  H      511.222     798.245      54.057
  H      513.222     800.852      45.002
  H      511.909     799.840      45.553
  H      509.443     798.138      54.055
  P      506.441     800.145      52.850
  C      505.411     800.436      55.216
  O      505.429     800.849      53.861
  O      506.364     798.589      53.240
  O      506.210     800.389      51.398
  H      505.738     798.120      52.649
  H      504.906     801.209      55.822
  H      506.431     800.309      55.607
  H      504.867     799.509      55.324
  H      512.673     794.602      54.714
  H      512.837     794.614      52.974
  H      511.495     793.779      53.719

 3  4  5  6  7  8  9  10  11  12  22  25  29  30  31  32 0
 6-311+G(2d,p)
 ****
 33  36  37 0
 6-311+G(2d,p)
 ****
 1  2  13  14  15  16  17  18  19  20  21  23  24  26 0
 3-21G
 ****
 27  28  34  35  38  39  40  41  42  43  44  45  46  47  48 0
 3-21G
 ****


