%nproc=1
%NoSave
%Mem=1900MB
#P OB98/GEN NMR

erre ene a

0 1
  C     -192.599     482.036    -204.119
  O     -193.794     482.407    -204.776
  H     -192.740     481.058    -203.653
  H     -192.374     482.767    -203.337
  H     -191.765     481.977    -204.824
  P     -193.705     483.596    -205.847
  C     -192.743     483.828    -208.247
  O     -193.152     482.949    -207.210
  C     -193.022     483.205    -209.614
  O     -192.075     482.114    -209.829
  C     -194.439     482.627    -209.767
  O     -194.890     482.855    -211.109
  C     -194.216     481.138    -209.587
  O     -195.245     480.357    -210.189
  C     -192.849     480.974    -210.244
  N     -192.565     476.112    -211.457
  C     -193.122     477.177    -212.139
  N     -193.756     476.901    -213.299
  N     -193.066     478.413    -211.718
  C     -192.384     478.551    -210.555
  C     -191.793     477.582    -209.783
  C     -191.879     476.213    -210.251
  O     -191.426     475.227    -209.684
  N     -191.256     478.122    -208.640
  C     -191.540     479.413    -208.714
  N     -192.226     479.719    -209.858
  O     -192.468     484.460    -205.309
  O     -194.940     484.422    -205.988
  H     -195.093     479.420    -209.955
  H     -192.792     485.190    -204.749
  H     -192.654     475.176    -211.820
  H     -191.293     480.152    -207.967
  H     -192.906     480.978    -211.339
  H     -194.174     480.890    -208.520
  H     -193.816     475.978    -213.704
  H     -195.166     483.039    -209.056
  H     -194.135     477.675    -213.830
  H     -192.825     483.957    -210.389
  H     -191.669     484.021    -208.155
  H     -193.280     484.777    -208.146
  P     -195.480     484.298    -211.474
  C     -194.254     486.496    -212.141
  O     -194.392     485.097    -212.338
  O     -195.460     485.062    -210.063
  O     -196.856     484.263    -212.053
  H     -196.218     485.670    -210.005
  H     -193.491     486.874    -212.790
  H     -193.984     486.688    -211.124
  H     -195.182     486.981    -212.361

 6  7  8  9  10  11  12  13  14  15  26  29  33  34 0
 6-311+G(2d,p)
 ****
 36  38  39  40  41 0
 6-311+G(2d,p)
 ****
 1  2  3  4  5  16  17  18  19  20  21  22  23  24  25 0
 3-21G
 ****
 27  28  30  31  32  35  37  42  43  44  45  46  47 0
 3-21G
 ****
 48  49 0
 3-21G
 ****


