%nproc=1
%NoSave
%Mem=1900MB
#P OB98/GEN NMR

erre ene a

0 1
  C       16.516    -347.719     533.728
  O       17.364    -346.778     533.104
  H       15.520    -347.637     533.289
  H       16.448    -347.490     534.797
  H       16.884    -348.739     533.589
  P       18.947    -346.966     533.229
  C       20.682    -347.094     535.132
  O       19.348    -346.773     534.777
  C       20.959    -346.810     536.617
  O       20.996    -345.382     536.845
  C       19.864    -347.359     537.526
  O       19.994    -348.723     537.880
  C       20.004    -346.457     538.760
  O       21.008    -346.964     539.654
  C       20.445    -345.124     538.154
  N       18.034    -341.108     540.203
  C       19.095    -341.832     540.710
  N       19.536    -341.480     541.940
  N       19.660    -342.825     540.066
  C       19.059    -343.121     538.889
  C       17.986    -342.480     538.292
  C       17.410    -341.348     538.990
  O       16.460    -340.677     538.590
  N       17.654    -343.072     537.101
  C       18.464    -344.108     537.007
  N       19.356    -344.161     538.057
  O       19.540    -345.637     532.550
  O       19.506    -348.200     532.573
  H       21.831    -347.107     539.148
  H       20.432    -345.811     532.205
  H       17.658    -340.330     540.731
  H       18.476    -344.826     536.190
  H       21.241    -344.652     538.752
  H       19.075    -346.405     539.328
  H       19.059    -340.804     542.517
  H       18.878    -347.185     537.083
  H       20.119    -342.146     542.449
  H       21.946    -347.201     536.886
  H       21.338    -346.488     534.511
  H       20.898    -348.145     534.906
  P       18.690    -349.617     538.135
  C       16.849    -349.711     539.987
  O       18.070    -349.146     539.544
  O       19.307    -351.062     538.454
  O       17.726    -349.659     537.002
  H       19.297    -351.610     537.641
  H       16.584    -349.289     540.934
  H       16.962    -350.770     540.087
  H       16.079    -349.500     539.274

 6  7  8  9  10  11  12  13  14  15  26  29  33  34 0
 6-311+G(2d,p)
 ****
 36  38  39  40  41 0
 6-311+G(2d,p)
 ****
 1  2  3  4  5  16  17  18  19  20  21  22  23  24  25 0
 3-21G
 ****
 27  28  30  31  32  35  37  42  43  44  45  46  47 0
 3-21G
 ****
 48  49 0
 3-21G
 ****


