%nproc=1
%NoSave
%Mem=1900MB
#P OB98/GEN NMR

erre ene a

0 1
  C      495.322     170.660    -361.499
  O      494.303     169.717    -361.157
  P      493.989     168.519    -362.163
  C      491.714     169.576    -362.743
  O      492.400     168.389    -362.350
  C      490.240     169.520    -362.315
  O      489.608     168.315    -362.841
  C      490.063     169.486    -360.791
  O      488.854     170.168    -360.413
  C      489.876     168.006    -360.499
  O      489.231     167.799    -359.239
  C      489.060     167.572    -361.727
  N      486.968     163.027    -360.625
  C      486.621     164.284    -360.257
  N      487.213     165.446    -360.607
  C      488.268     165.230    -361.424
  C      488.722     164.004    -361.893
  C      488.036     162.860    -361.440
  N      488.403     161.575    -361.793
  N      489.823     164.172    -362.721
  C      490.047     165.472    -362.713
  N      489.112     166.152    -361.984
  O      494.687     167.230    -361.868
  O      494.457     169.100    -363.583
  H      488.993     166.859    -359.182
  H      494.940     168.415    -364.078
  H      485.764     164.370    -359.601
  H      490.872     165.965    -363.212
  H      487.998     167.859    -361.624
  H      490.846     167.509    -360.474
  H      490.907     169.912    -360.232
  H      489.701     170.366    -362.750
  H      491.789     169.704    -363.827
  H      487.924     160.819    -361.325
  H      489.278     161.436    -362.275
  H      492.223     170.442    -362.307
  P      488.790     171.732    -360.776
  C      487.938     172.314    -358.367
  O      487.727     172.382    -359.757
  O      488.553     171.998    -362.236
  O      490.217     172.262    -360.253
  H      490.436     172.005    -359.348
  H      487.182     172.912    -357.865
  H      488.928     172.694    -358.107
  H      487.846     171.275    -358.026
  H      495.405     171.393    -360.723
  H      495.067     171.142    -362.420
  H      496.256     170.151    -361.610

 3  4  5  6  7  8  9  10  11  12  22  25  29  30  31  32 0
 6-311+G(2d,p)
 ****
 33  36  37 0
 6-311+G(2d,p)
 ****
 1  2  13  14  15  16  17  18  19  20  21  23  24  26 0
 3-21G
 ****
 27  28  34  35  38  39  40  41  42  43  44  45  46  47  48 0
 3-21G
 ****


