%nproc=1
%NoSave
%Mem=1900MB
#P OB98/GEN NMR

erre ene a

0 1
  C     -163.223     478.401     332.549
  O     -164.379     478.709     331.757
  P     -164.547     480.253     331.310
  C     -165.501     479.578     328.979
  O     -165.684     480.301     330.190
  C     -166.702     479.743     328.058
  O     -167.830     478.979     328.539
  C     -167.221     481.179     327.950
  O     -166.431     481.944     327.048
  C     -168.610     480.947     327.391
  O     -168.531     480.774     325.949
  C     -169.042     479.610     328.061
  N     -173.745     479.000     329.810
  C     -173.223     478.674     328.591
  N     -174.064     478.039     327.714
  N     -171.978     478.892     328.245
  C     -171.249     479.497     329.225
  C     -171.682     479.873     330.490
  C     -173.050     479.629     330.839
  O     -173.597     479.931     331.895
  N     -170.649     480.425     331.211
  C     -169.604     480.376     330.413
  N     -169.917     479.817     329.182
  O     -163.201     480.534     330.467
  O     -164.696     481.204     332.456
  H     -169.437     480.573     325.625
  H     -162.967     481.476     330.498
  H     -174.718     478.782     330.022
  H     -168.612     480.699     330.660
  H     -169.512     478.945     327.343
  H     -169.289     481.778     327.566
  H     -174.991     477.768     327.931
  H     -167.294     481.634     328.935
  H     -173.658     477.764     326.818
  H     -166.420     479.368     327.061
  H     -165.343     478.524     329.202
  H     -164.578     479.942     328.506
  P     -165.649     483.221     327.664
  C     -163.235     482.603     326.875
  O     -164.384     483.416     326.709
  O     -165.024     482.624     329.008
  O     -166.494     484.408     327.909
  H     -164.906     483.321     329.667
  H     -163.538     481.547     327.038
  H     -162.666     482.958     327.738
  H     -162.621     482.657     325.975
  H     -163.219     477.357     332.783
  H     -163.250     478.969     333.455
  H     -162.338     478.647     332.000

 3  4  5  6  7  8  9  10  11  12  23  26  30  31  33  0
 6-311+G(2d,p)
 ****
 35  36  37  38 0
 6-311+G(2d,p)
 ****
 1  2  13  14  15  16  17  18  19  20  21  22  24  25  27  28  29 0
 3-21G
 ****
 32  34  39  40  41  42  43  44  45  46  47  48  49 0
 3-21G
 ****


