%nproc=1
%NoSave
%Mem=1900MB
#P OB98/GEN NMR

erre ene a

0 1
  C     -123.594     275.026    -264.544
  O     -123.168     276.384    -264.350
  P     -121.617     276.612    -263.987
  C     -121.484     279.007    -264.967
  O     -121.373     278.191    -263.807
  C     -121.191     280.479    -264.636
  O     -122.387     281.141    -264.120
  C     -120.087     280.677    -263.595
  O     -119.383     281.880    -263.926
  C     -120.860     280.898    -262.312
  O     -120.065     281.530    -261.318
  C     -122.035     281.718    -262.843
  N     -124.369     284.195    -259.033
  C     -123.249     284.464    -259.732
  N     -122.684     283.737    -260.723
  C     -123.421     282.647    -260.997
  C     -124.584     282.239    -260.360
  C     -125.063     283.063    -259.323
  N     -126.188     282.778    -258.599
  N     -125.026     281.038    -260.888
  C     -124.144     280.733    -261.820
  N     -123.175     281.693    -261.941
  O     -120.866     276.259    -265.353
  O     -121.134     275.759    -262.860
  H     -120.624     281.707    -260.536
  H     -120.396     275.411    -265.270
  H     -122.734     285.386    -259.459
  H     -124.159     279.839    -262.424
  H     -121.772     282.772    -262.997
  H     -121.206     279.927    -261.913
  H     -119.382     279.834    -263.523
  H     -120.911     280.991    -265.574
  H     -122.496     278.926    -265.385
  H     -126.451     283.408    -257.852
  H     -126.685     281.915    -258.773
  H     -120.811     278.631    -265.740
  P     -117.917     281.702    -264.555
  C     -118.034     283.851    -266.002
  O     -117.409     283.175    -264.926
  O     -118.193     281.017    -265.977
  O     -116.986     280.888    -263.710
  H     -117.413     280.508    -266.260
  H     -118.164     284.901    -265.734
  H     -119.014     283.423    -266.248
  H     -117.392     283.783    -266.883
  H     -124.638     275.010    -264.778
  H     -123.421     274.466    -263.649
  H     -123.041     274.590    -265.350

 3  4  5  6  7  8  9  10  11  12  22  25  29  30  31  32 0
 6-311+G(2d,p)
 ****
 33  36  37 0
 6-311+G(2d,p)
 ****
 1  2  13  14  15  16  17  18  19  20  21  23  24  26 0
 3-21G
 ****
 27  28  34  35  38  39  40  41  42  43  44  45  46  47  48 0
 3-21G
 ****


