%nproc=1
%NoSave
%Mem=1900MB
#P OB98/GEN NMR

erre ene a

0 1
  C     -107.060      30.097     768.538
  O     -107.495      29.080     767.651
  H     -105.969      30.110     768.549
  H     -107.417      29.890     769.554
  H     -107.431      31.069     768.204
  P     -109.081      28.866     767.522
  C     -110.994      28.607     769.253
  O     -109.591      28.734     769.041
  C     -111.267      27.648     770.408
  O     -110.534      28.046     771.577
  C     -112.733      27.586     770.835
  O     -113.455      26.689     769.998
  C     -112.601      27.038     772.245
  O     -112.432      25.609     772.197
  C     -111.315      27.706     772.751
  N     -111.073      29.725     777.467
  C     -110.993      28.443     777.039
  N     -111.115      27.976     775.771
  C     -111.342      28.981     774.916
  C     -111.451      30.337     775.211
  C     -111.297      30.698     776.564
  N     -111.385      32.004     777.005
  N     -111.693      31.076     774.069
  C     -111.662      30.183     773.094
  N     -111.489      28.904     773.552
  O     -109.514      27.793     766.582
  O     -109.555      30.350     767.131
  H     -111.632      25.436     771.669
  H     -109.062      31.012     767.642
  H     -110.800      27.698     777.801
  H     -111.739      30.430     772.037
  H     -110.705      27.018     773.359
  H     -113.485      27.233     772.855
  H     -113.186      28.581     770.874
  H     -110.909      26.656     770.126
  H     -111.477      28.243     768.342
  H     -111.457      32.146     777.998
  H     -111.684      32.707     776.343
  H     -111.382      29.605     769.479
  P     -115.050      26.772     769.887
  C     -117.011      26.118     771.416
  O     -115.596      26.150     771.260
  O     -115.615      26.169     768.639
  O     -115.386      28.330     770.033
  H     -116.288      28.505     769.717
  H     -117.256      25.685     772.363
  H     -117.443      25.530     770.633
  H     -117.398      27.115     771.369

 6  7  8  9  10  11  12  13  14  15  25  28  32  33  34  35 0
 6-311+G(2d,p)
 ****
 36  39  40 0
 6-311+G(2d,p)
 ****
 1  2  3  4  5  16  17  18  19  20  21  22  23  24 0
 3-21G
 ****
 26  27  29  30  31  37  38  41  42  43  44  45  46  47 0
 3-21G
 ****
 48 0
 3-21G
 ****


