%nproc=1
%NoSave
%Mem=1900MB
#P OB98/GEN NMR

erre ene a

0 1
  C     1262.376     144.213     598.153
  O     1261.693     143.369     597.237
  H     1262.153     143.870     599.163
  H     1262.024     145.234     598.038
  H     1263.448     144.165     597.989
  P     1262.108     143.482     595.695
  C     1261.115     145.831     595.210
  O     1262.292     145.047     595.367
  C     1261.087     146.469     593.815
  O     1259.906     147.298     593.712
  C     1262.308     147.356     593.513
  O     1262.671     147.174     592.136
  C     1261.786     148.764     593.712
  O     1262.524     149.728     592.963
  C     1260.330     148.606     593.282
  N     1259.746     153.595     593.751
  C     1260.658     152.884     593.006
  N     1261.555     153.561     592.275
  N     1260.685     151.560     592.978
  C     1259.710     150.985     593.719
  C     1258.752     151.602     594.501
  C     1258.747     153.038     594.540
  O     1257.984     153.735     595.195
  N     1257.961     150.675     595.118
  C     1258.427     149.507     594.742
  N     1259.490     149.645     593.862
  O     1260.756     143.101     594.922
  O     1263.236     142.606     595.272
  H     1262.174     150.608     593.211
  H     1260.880     142.266     594.426
  H     1259.766     154.606     593.746
  H     1258.051     148.540     595.030
  H     1260.207     148.686     592.196
  H     1261.854     149.031     594.784
  H     1261.556     154.576     592.225
  H     1263.164     147.131     594.153
  H     1262.215     153.059     591.699
  H     1260.984     145.670     593.064
  H     1261.106     146.622     595.978
  H     1260.239     145.199     595.339
  P     1263.984     146.307     591.850
  C     1265.576     148.355     591.759
  O     1265.260     147.126     592.390
  O     1264.156     146.387     590.253
  O     1263.929     144.883     592.311
  H     1263.902     145.524     589.860
  H     1266.442     148.781     592.222
  H     1264.751     149.029     591.857
  H     1265.774     148.183     590.722

 6  7  8  9  10  11  12  13  14  15  26  29  33  34 0
 6-311+G(2d,p)
 ****
 36  38  39  40  41 0
 6-311+G(2d,p)
 ****
 1  2  3  4  5  16  17  18  19  20  21  22  23  24  25 0
 3-21G
 ****
 27  28  30  31  32  35  37  42  43  44  45  46  47 0
 3-21G
 ****
 48  49 0
 3-21G
 ****


