%nproc=1
%NoSave
%Mem=1900MB
#P OB98/GEN NMR

erre ene a

0 1
  C       42.621      41.958     -43.208
  O       41.318      42.502     -43.141
  H       42.626      41.151     -43.946
  H       42.904      41.548     -42.235
  H       43.339      42.724     -43.513
  P       41.126      43.814     -42.243
  C       41.997      45.424     -44.125
  O       42.144      44.926     -42.801
  C       41.534      46.878     -44.085
  O       42.506      47.718     -43.432
  C       41.373      47.511     -45.457
  O       40.257      47.015     -46.161
  C       41.259      48.978     -45.072
  O       39.940      49.289     -44.601
  C       42.288      49.071     -43.918
  N       43.532      49.704     -44.329
  C       43.448      51.067     -44.640
  O       42.373      51.660     -44.547
  N       44.578      51.713     -45.074
  C       45.697      51.066     -45.167
  N       46.777      51.761     -45.612
  C       45.835      49.638     -44.825
  C       44.724      49.024     -44.423
  O       41.796      43.388     -40.855
  O       39.722      44.308     -42.127
  H       39.960      50.226     -44.327
  H       42.704      43.055     -40.946
  H       46.791      49.141     -44.908
  H       44.737      47.977     -44.154
  H       41.875      49.645     -43.079
  H       41.459      49.641     -45.916
  H       42.294      47.388     -46.041
  H       40.600      46.922     -43.510
  H       46.640      52.734     -45.857
  H       41.297      44.811     -44.698
  H       47.689      51.356     -45.755
  H       42.975      45.353     -44.614
  P       40.402      46.529     -47.682
  C       40.710      44.038     -47.113
  O       41.317      45.209     -47.647
  O       40.858      47.575     -48.642
  O       38.955      45.927     -48.015
  H       38.682      45.186     -47.446
  H       41.410      43.229     -47.141
  H       39.849      43.785     -47.696
  H       40.415      44.219     -46.101

 6  7  8  9  10  11  12  13  14  15  16  26  30  31  32  33  35 0
 6-311+G(2d,p)
 ****
 37  38 0
 6-311+G(2d,p)
 ****
 1  2  3  4  5  17  18  19  20  21  22  23  24  25 0
 3-21G
 ****
 27  28  29  34  36  39  40  41  42  43  44  45  46 0
 3-21G
 ****


