%nproc=1
%NoSave
%Mem=1900MB
#P OB98/GEN NMR

erre ene a

0 1
  C     -121.502    -224.715    -242.879
  O     -120.461    -224.491    -243.806
  H     -122.113    -223.811    -242.810
  H     -121.081    -224.930    -241.893
  H     -122.138    -225.546    -243.202
  P     -119.570    -225.764    -244.209
  C     -120.543    -226.544    -246.487
  O     -120.516    -226.726    -245.077
  C     -121.973    -226.301    -246.961
  O     -122.467    -225.046    -246.441
  C     -122.125    -226.225    -248.474
  O     -122.214    -227.515    -249.062
  C     -123.445    -225.480    -248.584
  O     -124.539    -226.384    -248.313
  C     -123.320    -224.449    -247.458
  N     -124.227    -220.036    -249.782
  C     -125.068    -221.107    -249.553
  N     -126.332    -220.991    -250.015
  N     -124.706    -222.199    -248.929
  C     -123.411    -222.179    -248.531
  C     -122.482    -221.177    -248.698
  C     -122.898    -219.975    -249.382
  O     -122.198    -218.986    -249.592
  N     -121.273    -221.519    -248.149
  C     -121.466    -222.732    -247.666
  N     -122.745    -223.181    -247.879
  O     -119.410    -226.557    -242.826
  O     -118.242    -225.451    -244.810
  H     -124.400    -227.168    -248.876
  H     -118.521    -226.960    -242.794
  H     -124.553    -219.225    -250.278
  H     -120.715    -223.321    -247.158
  H     -124.284    -224.223    -246.988
  H     -123.615    -225.067    -249.578
  H     -126.660    -220.200    -250.548
  H     -121.330    -225.625    -248.932
  H     -126.976    -221.748    -249.831
  H     -122.605    -227.098    -246.547
  H     -120.148    -227.445    -246.973
  H     -119.908    -225.692    -246.746
  P     -120.962    -228.024    -249.936
  C     -121.085    -230.499    -249.157
  O     -120.358    -229.275    -249.135
  O     -119.871    -226.875    -249.699
  O     -121.248    -228.239    -251.380
  H     -119.229    -226.868    -250.437
  H     -120.562    -231.235    -248.583
  H     -121.183    -230.838    -250.167
  H     -122.057    -230.344    -248.737

 6  7  8  9  10  11  12  13  14  15  26  29  33  34 0
 6-311+G(2d,p)
 ****
 36  38  39  40  41 0
 6-311+G(2d,p)
 ****
 1  2  3  4  5  16  17  18  19  20  21  22  23  24  25 0
 3-21G
 ****
 27  28  30  31  32  35  37  42  43  44  45  46  47 0
 3-21G
 ****
 48  49 0
 3-21G
 ****


