%nproc=1
%NoSave
%Mem=1900MB
#P OB98/GEN NMR

erre ene a

0 1
  C     -109.206    -898.660     665.013
  O     -110.193    -898.110     665.888
  H     -108.257    -898.700     665.582
  H     -109.072    -898.000     664.155
  H     -109.475    -899.660     664.704
  P     -111.706    -898.010     665.372
  C     -111.646    -895.670     664.273
  O     -111.687    -897.080     664.046
  C     -111.147    -894.950     663.030
  O     -112.023    -895.280     661.921
  C     -111.113    -893.420     663.175
  O     -109.976    -892.920     662.482
  C     -112.367    -892.960     662.460
  O     -112.269    -891.640     661.936
  C     -112.494    -894.030     661.350
  N     -115.454    -893.870     657.256
  C     -114.069    -893.760     657.376
  N     -113.386    -893.540     656.232
  N     -113.452    -893.850     658.517
  C     -114.243    -894.080     659.571
  C     -115.632    -894.210     659.607
  C     -116.330    -894.110     658.330
  O     -117.539    -894.190     658.136
  N     -116.087    -894.420     660.868
  C     -115.010    -894.390     661.626
  N     -113.868    -894.180     660.893
  O     -112.715    -897.610     666.397
  O     -111.997    -899.480     664.779
  H     -111.878    -891.090     662.635
  H     -112.519    -900.000     665.420
  H     -115.896    -893.800     656.372
  H     -114.990    -894.510     662.695
  H     -111.896    -893.800     660.466
  H     -113.243    -893.020     663.129
  H     -113.828    -893.490     655.326
  H     -111.118    -893.100     664.232
  H     -112.362    -893.470     656.291
  H     -110.151    -895.340     662.789
  H     -110.977    -895.480     665.112
  H     -112.670    -895.330     664.551
  P     -108.590    -892.760     663.324
  C     -108.431    -890.200     663.425
  O     -108.657    -891.410     664.162
  O     -107.336    -892.990     662.518
  O     -108.737    -893.910     664.460
  H     -107.861    -894.240     664.693
  H     -108.500    -889.362     664.086
  H     -109.168    -890.108     662.655
  H     -107.456    -890.228     662.984

 6  7  8  9  10  11  12  13  14  15  26  29  33  34 0
 6-311+G(2d,p)
 ****
 36  38  39  40  41 0
 6-311+G(2d,p)
 ****
 1  2  3  4  5  16  17  18  19  20  21  22  23  24  25 0
 3-21G
 ****
 27  28  30  31  32  35  37  42  43  44  45  46  47 0
 3-21G
 ****
 48  49 0
 3-21G
 ****


