%nproc=1
%NoSave
%Mem=1900MB
#P OB98/GEN NMR

erre ene a

0 1
  C       15.102     -22.622    -718.602
  O       15.174     -21.216    -718.543
  H       14.709     -22.998    -717.650
  H       16.095     -23.050    -718.760
  H       14.432     -22.941    -719.409
  P       15.569     -20.405    -719.864
  C       14.168     -18.341    -719.171
  O       15.465     -18.838    -719.509
  C       14.298     -17.023    -718.413
  O       14.783     -17.272    -717.065
  C       15.315     -16.055    -719.032
  O       14.784     -15.436    -720.186
  C       15.560     -15.122    -717.857
  O       14.529     -14.132    -717.754
  C       15.505     -16.089    -716.655
  N       16.836     -16.434    -716.169
  C       17.536     -15.438    -715.487
  O       17.057     -14.316    -715.271
  N       18.820     -15.752    -715.102
  C       19.493     -16.886    -715.452
  O       20.709     -17.001    -715.308
  C       18.712     -17.919    -716.129
  C       17.439     -17.659    -716.459
  O       14.846     -20.816    -721.114
  O       17.144     -20.635    -720.003
  H       17.313     -21.314    -720.680
  H       14.549     -13.639    -718.601
  H       19.330     -15.009    -714.641
  H       19.191     -18.859    -716.358
  H       16.837     -18.400    -716.983
  H       14.941     -15.647    -715.824
  H       16.511     -14.602    -717.957
  H       16.239     -16.584    -719.269
  H       13.298     -16.564    -718.341
  H       13.663     -19.079    -718.536
  H       13.582     -18.207    -720.088
  P       15.330     -15.854    -721.642
  C       13.203     -15.807    -723.090
  O       14.412     -15.136    -722.753
  O       15.539     -17.320    -721.845
  O       16.720     -15.063    -721.763
  H       17.423     -15.690    -722.060
  H       12.677     -15.244    -723.832
  H       12.593     -15.903    -722.216
  H       13.430     -16.779    -723.475

 6  7  8  9  10  11  12  13  14  15  16  27  31  32  33  34  35 0
 6-311+G(2d,p)
 ****
 36  37 0
 6-311+G(2d,p)
 ****
 1  2  3  4  5  17  18  19  20  21  22  23  24  25 0
 3-21G
 ****
 26  28  29  30  38  39  40  41  42  43  44  45 0
 3-21G
 ****


