%nproc=1
%NoSave
%Mem=1900MB
#P OB98/GEN NMR

erre ene a

0 1
  C       32.044      34.570    -161.624
  O       32.918      33.938    -162.537
  H       31.232      33.892    -161.347
  H       32.606      34.832    -160.724
  H       31.634      35.485    -162.062
  P       32.288      33.498    -163.946
  C       30.367      31.910    -164.672
  O       31.195      32.369    -163.614
  C       29.337      30.919    -164.138
  O       28.771      31.402    -162.903
  C       28.149      30.672    -165.065
  O       28.471      29.760    -166.106
  C       27.147      30.074    -164.089
  O       27.462      28.687    -163.860
  C       27.414      30.892    -162.817
  N       22.993      32.419    -160.740
  C       23.670      31.252    -160.662
  N       24.853      30.929    -161.227
  C       25.348      31.968    -161.920
  C       24.785      33.224    -162.072
  C       23.543      33.437    -161.449
  N       22.825      34.614    -161.591
  N       25.579      34.023    -162.870
  C       26.596      33.256    -163.207
  N       26.502      32.008    -162.650
  O       33.485      32.681    -164.632
  O       31.817      34.621    -164.810
  H       27.505      28.261    -164.735
  H       33.966      33.270    -165.242
  H       23.200      30.475    -160.071
  H       27.412      33.557    -163.848
  H       27.358      30.277    -161.910
  H       26.116      30.117    -164.451
  H       27.748      31.612    -165.461
  H       29.858      29.976    -163.918
  H       30.984      31.417    -165.431
  H       21.820      34.487    -161.518
  H       23.156      35.219    -162.335
  H       29.866      32.772    -165.123
  P       27.534      29.752    -167.408
  C       25.251      28.683    -167.986
  O       26.129      29.119    -166.957
  O       28.197      28.609    -168.312
  O       27.456      31.046    -168.143
  H       28.427      28.975    -169.190
  H       24.359      28.286    -167.549
  H       25.732      27.924    -168.567
  H       25.001      29.511    -168.616

 6  7  8  9  10  11  12  13  14  15  25  28  32  33  34  35 0
 6-311+G(2d,p)
 ****
 36  39  40 0
 6-311+G(2d,p)
 ****
 1  2  3  4  5  16  17  18  19  20  21  22  23  24 0
 3-21G
 ****
 26  27  29  30  31  37  38  41  42  43  44  45  46  47  48 0
 3-21G
 ****


