%nproc=1
%NoSave
%Mem=1900MB
#P OB98/GEN NMR

erre ene a

0 1
  C      182.954     -81.374     314.220
  O      181.732     -81.708     313.590
  H      183.778     -81.722     313.591
  H      183.019     -81.865     315.196
  H      183.032     -80.291     314.342
  P      180.392     -81.265     314.353
  C      179.583     -79.664     312.461
  O      180.030     -79.803     313.802
  C      179.798     -78.228     311.969
  O      181.234     -77.960     311.925
  C      179.258     -77.964     310.555
  O      178.898     -76.573     310.473
  C      180.485     -78.222     309.699
  O      180.306     -77.727     308.392
  C      181.547     -77.558     310.573
  N      185.114     -77.596     306.905
  C      183.868     -77.066     306.946
  N      182.984     -77.087     307.961
  C      183.498     -77.718     309.032
  C      184.753     -78.295     309.145
  C      185.580     -78.223     308.009
  N      186.844     -78.767     307.964
  N      184.925     -78.850     310.401
  C      183.792     -78.607     311.034
  N      182.904     -77.934     310.246
  O      180.893     -80.995     315.849
  O      179.270     -82.249     314.309
  H      181.128     -77.833     307.863
  H      180.745     -81.789     316.398
  H      183.543     -76.567     306.038
  H      183.563     -78.906     312.051
  H      181.484     -76.463     310.528
  H      180.676     -79.295     309.605
  H      178.392     -78.579     310.301
  H      179.372     -77.530     312.700
  H      178.516     -79.911     312.423
  H      180.139     -80.355     311.818
  H      187.369     -78.686     307.106
  H      187.200     -79.254     308.773
  P      177.402     -76.127     310.869
  C      178.093     -74.549     312.840
  O      177.379     -75.706     312.418
  O      176.634     -77.535     310.900
  O      176.737     -75.179     309.920
  H      175.689     -77.397     310.690
  H      177.969     -74.419     313.895
  H      177.714     -73.689     312.328
  H      179.132     -74.669     312.615

 6  7  8  9  10  11  12  13  14  15  25  28  32  33  34  35 0
 6-311+G(2d,p)
 ****
 36  37  40 0
 6-311+G(2d,p)
 ****
 1  2  3  4  5  16  17  18  19  20  21  22  23  24 0
 3-21G
 ****
 26  27  29  30  31  38  39 41  42  43  44  45  46  47  48 0
 3-21G
 ****


