%nproc=1
%NoSave
%Mem=1900MB
#P OB98/GEN NMR

erre ene a

0 1
  C      -92.384     210.943     573.643
  O      -92.870     210.489     572.383
  P      -93.362     211.442     571.202
  C      -91.053     211.407     569.959
  O      -92.080     212.167     570.578
  C      -91.354     211.071     568.488
  O      -91.316     212.290     567.698
  C      -90.275     210.150     567.917
  O      -90.350     208.751     568.132
  C      -90.166     210.549     566.455
  O      -90.974     209.741     565.602
  C      -90.660     211.997     566.446
  N      -87.915     214.597     562.999
  C      -88.885     213.635     562.797
  N      -89.124     213.283     561.518
  N      -89.546     213.061     563.765
  C      -89.146     213.441     564.999
  C      -88.186     214.369     565.329
  C      -87.499     215.044     564.246
  O      -86.639     215.912     564.372
  N      -88.038     214.484     566.687
  C      -88.891     213.606     567.179
  N      -89.596     212.955     566.190
  O      -94.540     212.302     571.516
  O      -93.808     210.406     570.048
  H      -90.774     208.806     565.796
  H      -94.554     210.826     569.568
  H      -87.451     215.025     562.219
  H      -89.042     213.411     568.232
  H      -91.409     212.153     565.659
  H      -89.131     210.435     566.102
  H      -88.565     213.599     560.737
  H      -89.323     210.449     568.375
  H      -89.672     212.434     561.378
  H      -92.366     210.672     568.379
  H      -90.940     210.491     570.548
  H      -90.103     211.939     570.029
  P      -89.469     207.905     569.169
  C      -91.367     207.036     570.657
  O      -90.238     207.886     570.570
  O      -88.209     208.846     569.466
  O      -89.029     206.567     568.673
  H      -87.490     208.330     569.875
  H      -91.975     207.331     571.514
  H      -91.032     206.004     570.795
  H      -91.976     207.103     569.752
  H      -92.122     210.101     574.249
  H      -93.145     211.513     574.134
  H      -91.520     211.556     573.492

 3  4  5  6  7  8  9  10  11  12  23  26  30  31 0
 6-311+G(2d,p)
 ****
 33  35  36  37  38 0
 6-311+G(2d,p)
 ****
 1  2  13  14  15  16  17  18  19  20  21  22  24  25 0
 3-21G
 ****
 27  28  29  32  34  39  40  41  42  43  44  45  46  47  48  49 0
 3-21G
 ****


