%nproc=1
%NoSave
%Mem=1900MB
#P OB98/GEN NMR

erre ene a

0 1
  C       11.098    -254.817     224.705
  O       12.121    -254.667     223.716
  P       13.520    -255.392     224.030
  C       16.014    -254.693     224.193
  O       14.670    -254.271     224.019
  C       16.976    -253.749     223.467
  O       16.958    -253.941     222.039
  C       16.664    -252.275     223.695
  O       17.160    -251.860     224.953
  C       17.381    -251.620     222.520
  O       18.779    -251.409     222.814
  C       17.220    -252.667     221.400
  N       15.483    -249.343     217.990
  C       16.524    -249.223     218.893
  N       17.213    -248.063     218.865
  N       16.856    -250.157     219.742
  C       16.078    -251.265     219.659
  C       15.042    -251.510     218.787
  C       14.680    -250.465     217.850
  O       13.785    -250.531     217.017
  N       14.533    -252.773     218.960
  C       15.178    -253.239     220.013
  N       16.173    -252.387     220.432
  O       13.799    -256.245     222.704
  O       13.483    -256.258     225.243
  H       18.854    -250.799     223.570
  H       13.702    -257.195     222.898
  H       15.264    -248.586     217.362
  H       14.988    -254.186     220.489
  H       18.143    -252.780     220.823
  H       16.964    -250.640     222.283
  H       17.014    -247.301     218.236
  H       15.581    -252.103     223.615
  H       17.984    -247.957     219.515
  H       17.991    -253.972     223.827
  H       16.141    -255.710     223.818
  H       16.236    -254.724     225.265
  P       16.241    -250.891     225.841
  C       16.050    -250.421     228.387
  O       16.861    -250.859     227.315
  O       14.887    -251.735     226.010
  O       15.973    -249.559     225.225
  H       14.119    -251.146     225.872
  H       16.373    -250.922     229.303
  H       14.991    -250.647     228.211
  H       16.172    -249.340     228.512
  H       10.218    -254.296     224.390
  H       11.439    -254.412     225.635
  H       10.872    -255.855     224.830

 3  4  5  6  7  8  9  10  11  12  23  26  30  31 0
 6-311+G(2d,p)
 ****
 33  35  36  37  38 0
 6-311+G(2d,p)
 ****
 1  2  13  14  15  16  17  18  19  20  21  22  24  25 0
 3-21G
 ****
 27  28  29  32  34  39  40  41  42  43  44  45  46  47  48  49 0
 3-21G
 ****


