%nproc=1
%NoSave
%Mem=1900MB
#P OB98/GEN NMR

erre ene a

0 1
  C      116.147      56.782      31.246
  O      116.495      56.988      32.606
  P      116.964      58.461      33.046
  C      119.481      57.788      33.035
  O      118.382      58.292      33.777
  C      120.133      56.617      33.772
  O      120.893      57.140      34.892
  C      119.151      55.583      34.334
  O      119.807      54.310      34.283
  C      118.990      56.014      35.780
  O      118.523      54.963      36.620
  C      120.403      56.497      36.089
  N      121.009      56.991      41.087
  C      120.950      55.847      40.311
  N      121.140      54.676      40.956
  N      120.730      55.852      39.022
  C      120.575      57.099      38.515
  C      120.571      58.300      39.183
  C      120.855      58.283      40.601
  O      121.002      59.276      41.310
  N      120.292      59.344      38.341
  C      120.208      58.783      37.152
  N      120.417      57.430      37.200
  O      115.960      58.811      34.241
  O      116.953      59.494      31.965
  H      118.272      55.355      37.479
  H      115.187      59.311      33.916
  H      121.202      56.926      42.072
  H      120.004      59.299      36.229
  H      121.084      55.673      36.339
  H      118.269      56.838      35.841
  H      121.347      54.600      41.940
  H      118.201      55.544      33.796
  H      121.136      53.825      40.405
  H      120.846      56.136      33.091
  H      120.223      58.585      32.920
  H      119.144      57.484      32.041
  P      119.391      53.298      33.112
  C      118.816      51.424      34.806
  O      119.567      51.811      33.672
  O      120.601      53.444      32.069
  O      118.085      53.603      32.454
  H      120.269      53.311      31.162
  H      118.730      50.335      34.819
  H      117.811      51.857      34.790
  H      119.334      51.749      35.713
  H      115.857      55.762      31.103
  H      116.989      57.004      30.625
  H      115.332      57.424      30.985

 3  4  5  6  7  8  9  10  11  12  23  26  30  31 0
 6-311+G(2d,p)
 ****
 33  35  36  37  38 0
 6-311+G(2d,p)
 ****
 1  2  13  14  15  16  17  18  19  20  21  22  24  25 0
 3-21G
 ****
 27  28  29  32  34  39  40  41  42  43  44  45  46  47  48  49 0
 3-21G
 ****


