%nproc=1
%NoSave
%Mem=1900MB
#P OB98/GEN NMR

erre ene a

0 1
  C      145.659    -131.188     -99.143
  O      144.252    -131.209     -99.393
  P      143.256    -131.042     -98.139
  C      142.231    -133.415     -97.940
  O      143.136    -132.459     -97.384
  C      142.438    -134.796     -97.305
  O      143.758    -135.284     -97.649
  C      142.378    -134.807     -95.766
  O      141.109    -134.999     -95.139
  C      143.214    -136.047     -95.447
  O      142.392    -137.232     -95.559
  C      144.287    -136.060     -96.540
  N      148.517    -136.984     -93.819
  C      147.417    -137.734     -94.077
  N      146.334    -137.416     -94.813
  C      146.459    -136.183     -95.322
  C      147.509    -135.287     -95.144
  C      148.586    -135.738     -94.344
  N      149.689    -134.965     -94.078
  N      147.271    -134.108     -95.815
  C      146.081    -134.271     -96.369
  N      145.548    -135.514     -96.110
  O      141.963    -130.359     -98.429
  O      144.143    -130.189     -97.113
  H      142.944    -137.978     -95.271
  H      143.557    -129.552     -96.648
  H      147.410    -138.731     -93.627
  H      145.565    -133.519     -96.960
  H      144.480    -137.068     -96.917
  H      143.608    -136.031     -94.430
  H      142.864    -133.919     -95.351
  H      141.698    -135.498     -97.706
  H      142.394    -133.480     -99.025
  H      150.389    -135.345     -93.462
  H      149.734    -134.019     -94.422
  H      141.219    -133.022     -97.796
  P      140.316    -133.778     -94.476
  C      140.530    -134.340     -91.918
  O      140.979    -133.570     -93.026
  O      138.826    -133.919     -94.468
  O      140.856    -132.526     -95.305
  H      141.789    -132.306     -95.135
  H      141.239    -134.213     -91.094
  H      140.483    -135.405     -92.177
  H      139.540    -133.992     -91.603
  H      146.187    -131.309    -100.066
  H      145.915    -131.986     -98.478
  H      145.928    -130.253     -98.698

 3  4  5  6  7  8  9  10  11  12  22  25  29  30  31  32 0
 6-311+G(2d,p)
 ****
 33  36  37 0
 6-311+G(2d,p)
 ****
 1  2  13  14  15  16  17  18  19  20  21  23  24  26 0
 3-21G
 ****
 27  28  34  35  38  39  40  41  42  43  44  45  46  47  48 0
 3-21G
 ****


