%nproc=1
%NoSave
%Mem=1900MB
#P OB98/GEN NMR

erre ene a

0 1
  C     -144.008    -254.152     115.501
  O     -142.787    -254.859     115.424
  H     -144.842    -254.850     115.604
  H     -143.984    -253.499     116.378
  H     -144.145    -253.536     114.608
  P     -142.633    -255.907     114.221
  C     -140.175    -255.383     113.584
  O     -141.543    -255.301     113.207
  C     -139.510    -254.017     113.434
  O     -140.215    -253.072     114.276
  C     -138.021    -253.984     113.819
  O     -137.232    -253.529     112.716
  C     -137.940    -252.943     114.926
  O     -136.789    -252.106     114.831
  C     -139.230    -252.149     114.761
  N     -138.193    -248.489     118.150
  C     -137.876    -248.610     116.843
  N     -138.273    -249.556     115.967
  C     -139.106    -250.431     116.560
  C     -139.539    -250.422     117.876
  C     -139.032    -249.401     118.696
  N     -139.310    -249.308     120.040
  N     -140.385    -251.489     118.118
  C     -140.425    -252.155     116.983
  N     -139.652    -251.562     116.019
  O     -144.014    -255.755     113.422
  O     -142.390    -257.318     114.639
  H     -136.019    -252.662     115.059
  H     -144.388    -256.638     113.243
  H     -137.208    -247.850     116.446
  H     -140.953    -253.084     116.815
  H     -139.127    -251.343     114.024
  H     -137.912    -253.459     115.894
  H     -137.653    -254.956     114.164
  H     -139.640    -253.684     112.395
  H     -139.660    -256.101     112.936
  H     -138.811    -248.617     120.575
  H     -139.843    -250.047     120.475
  H     -140.111    -255.735     114.618
  P     -136.702    -254.655     111.696
  C     -136.939    -253.529     109.361
  O     -137.475    -254.447     110.307
  O     -137.351    -255.998     112.281
  O     -135.217    -254.743     111.611
  H     -136.800    -256.768     112.039
  H     -137.565    -253.504     108.494
  H     -135.954    -253.840     109.081
  H     -136.895    -252.553     109.797

 6  7  8  9  10  11  12  13  14  15  25  28  32  33  34  35 0
 6-311+G(2d,p)
 ****
 36  39  40 0
 6-311+G(2d,p)
 ****
 1  2  3  4  5  16  17  18  19  20  21  22  23  24 0
 3-21G
 ****
 26  27  29  30  31  37  38  41  42  43  44  45  46  47  48 0
 3-21G
 ****


