%nproc=1
%NoSave
%Mem=1900MB
#P OB98/GEN NMR

erre ene a

0 1
  C      -30.282     388.662    -258.792
  O      -29.023     389.005    -258.250
  H      -30.545     387.652    -258.461
  H      -30.227     388.672    -259.882
  H      -31.058     389.356    -258.450
  P      -28.583     390.547    -258.340
  C      -27.453     390.593    -256.004
  O      -27.282     390.720    -257.408
  C      -26.099     390.423    -255.321
  O      -25.450     389.228    -255.835
  C      -25.137     391.602    -255.546
  O      -24.403     391.842    -254.336
  C      -24.191     391.091    -256.617
  O      -22.920     391.746    -256.589
  C      -24.135     389.604    -256.282
  N      -20.180     387.996    -258.965
  C      -20.226     388.708    -257.777
  N      -19.036     389.052    -257.230
  N      -21.341     389.051    -257.186
  C      -22.449     388.612    -257.835
  C      -22.533     387.906    -259.015
  C      -21.294     387.561    -259.675
  O      -21.183     386.952    -260.736
  N      -23.845     387.678    -259.365
  C      -24.542     388.241    -258.401
  N      -23.741     388.817    -257.443
  O      -29.735     391.305    -257.525
  O      -28.443     391.092    -259.725
  H      -22.254     391.102    -256.919
  H      -30.230     391.889    -258.125
  H      -19.287     387.771    -259.385
  H      -25.627     388.275    -258.345
  H      -23.423     389.383    -255.483
  H      -24.636     391.256    -257.608
  H      -18.148     388.777    -257.598
  H      -25.645     392.519    -255.848
  H      -19.052     389.534    -256.339
  H      -26.267     390.259    -254.245
  H      -28.073     389.709    -255.808
  H      -27.957     391.482    -255.619
  P      -25.006     392.942    -253.325
  C      -24.033     391.584    -251.345
  O      -24.183     392.864    -251.946
  O      -26.441     392.346    -252.954
  O      -25.120     394.306    -253.924
  H      -27.145     392.866    -253.377
  H      -23.469     391.678    -250.441
  H      -23.519     390.931    -252.019
  H      -24.998     391.179    -251.123

 6  7  8  9  10  11  12  13  14  15  26  29  33  34 0
 6-311+G(2d,p)
 ****
 36  38  39  40  41 0
 6-311+G(2d,p)
 ****
 1  2  3  4  5  16  17  18  19  20  21  22  23  24  25 0
 3-21G
 ****
 27  28  30  31  32  35  37  42  43  44  45  46  47 0
 3-21G
 ****
 48  49 0
 3-21G
 ****


