%nproc=1
%NoSave
%Mem=1900MB
#P OB98/GEN NMR

erre ene a

0 1
  C       62.166      -8.338    -221.952
  O       61.222      -9.406    -222.107
  P       60.506     -10.136    -220.867
  C       62.160     -12.097    -220.589
  O       61.609     -10.924    -220.006
  C       62.665     -13.082    -219.526
  O       63.877     -12.562    -218.896
  C       61.654     -13.374    -218.399
  O       61.784     -14.765    -218.085
  C       62.174     -12.495    -217.270
  O       61.696     -12.868    -215.991
  C       63.684     -12.687    -217.470
  N       64.535     -11.743    -216.749
  C       65.368     -12.252    -215.745
  O       65.346     -13.442    -215.434
  N       66.208     -11.386    -215.086
  C       66.214     -10.124    -215.393
  N       67.079      -9.324    -214.710
  C       65.344      -9.543    -216.429
  C       64.540     -10.398    -217.061
  O       59.345     -10.990    -221.266
  O       60.029      -8.956    -219.894
  H       59.178      -9.205    -219.481
  H       62.068     -12.249    -215.338
  H       65.384      -8.488    -216.660
  H       63.887     -10.054    -217.857
  H       63.960     -13.712    -217.194
  H       61.863     -11.463    -217.460
  H       60.614     -13.170    -218.678
  H       62.949     -14.013    -220.032
  H       67.669      -9.764    -214.010
  H       63.003     -11.805    -221.224
  H       67.173      -8.333    -214.873
  H       61.400     -12.574    -221.222
  P       60.575     -15.770    -218.418
  C       59.305     -15.505    -216.155
  O       59.307     -15.305    -217.555
  O       61.030     -17.099    -217.637
  O       60.345     -16.075    -219.863
  H       60.622     -17.875    -218.064
  H       58.934     -14.597    -215.669
  H       60.302     -15.727    -215.765
  H       58.633     -16.336    -215.914
  H       62.503      -8.017    -222.916
  H       63.001      -8.681    -221.378
  H       61.698      -7.519    -221.447

 3  4  5  6  7  8  9  10  11  12  13  24  27  28  29  30  32 0
 6-311+G(2d,p)
 ****
 34  35 0
 6-311+G(2d,p)
 ****
 1  2  14  15  16  17  18  19  20  21  22  23  25  26 0
 3-21G
 ****
 31  33  36  37  38  39  40  41  42  43  44  45  46 0
 3-21G
 ****


