%nproc=1
%NoSave
%Mem=1900MB
#P OB98/GEN NMR

erre ene a

0 1
  C      254.504    -277.063     976.259
  O      255.567    -278.013     976.416
  P      256.712    -278.003     975.286
  C      258.411    -276.682     976.760
  O      257.643    -276.726     975.556
  C      259.014    -275.294     976.968
  O      257.985    -274.285     976.994
  C      259.755    -275.130     978.279
  O      261.068    -275.679     978.214
  C      259.816    -273.615     978.404
  O      260.912    -273.107     977.621
  C      258.478    -273.180     977.792
  N      255.856    -269.439     979.998
  C      256.810    -269.386     979.006
  N      257.093    -268.161     978.512
  N      257.433    -270.430     978.538
  C      257.036    -271.593     979.111
  C      256.104    -271.783     980.106
  C      255.436    -270.610     980.634
  O      254.600    -270.600     981.536
  N      255.953    -273.109     980.412
  C      256.777    -273.734     979.589
  N      257.469    -272.853     978.791
  O      255.903    -277.592     973.958
  O      257.425    -279.306     975.127
  H      261.735    -273.450     978.023
  H      256.357    -277.950     973.170
  H      255.406    -268.599     980.328
  H      256.912    -274.803     979.537
  H      258.587    -272.316     977.124
  H      259.979    -273.276     979.430
  H      256.601    -267.318     978.771
  H      259.183    -275.553     979.120
  H      257.768    -268.108     977.748
  H      259.688    -275.084     976.125
  H      259.218    -277.424     976.701
  H      257.772    -276.971     977.600
  P      261.196    -277.283     978.231
  C      262.295    -277.251     975.880
  O      261.238    -277.728     976.691
  O      259.749    -277.755     978.739
  O      262.290    -277.803     979.095
  H      259.820    -278.605     979.206
  H      263.257    -277.296     976.404
  H      262.088    -276.215     975.577
  H      262.357    -277.871     974.979
  H      253.810    -277.167     977.067
  H      254.001    -277.241     975.332
  H      254.908    -276.072     976.261

 3  4  5  6  7  8  9  10  11  12  23  26  30  31  33  0
 6-311+G(2d,p)
 ****
 35  36  37  38 0
 6-311+G(2d,p)
 ****
 1  2  13  14  15  16  17  18  19  20  21  22  24  25  27  28  29 0
 3-21G
 ****
 32  34  39  40  41  42  43  44  45  46  47  48  49 0
 3-21G
 ****


