%nproc=1
%NoSave
%Mem=1900MB
#P OB98/GEN NMR

erre ene a

0 1
  C       -2.879     124.462    -121.087
  O       -3.264     124.974    -119.803
  P       -3.756     126.484    -119.565
  C       -5.589     125.733    -117.898
  O       -4.452     126.560    -118.120
  C       -5.531     125.089    -116.511
  O       -4.465     124.111    -116.456
  C       -5.221     126.040    -115.365
  O       -6.319     126.873    -115.041
  C       -4.828     125.060    -114.262
  O       -5.982     124.556    -113.575
  C       -4.152     123.926    -115.056
  N       -2.714     123.864    -114.846
  C       -2.282     123.393    -113.603
  O       -3.096     123.128    -112.720
  N       -0.933     123.247    -113.390
  C       -0.092     123.640    -114.295
  N        1.231     123.454    -114.036
  C       -0.505     124.269    -115.563
  C       -1.818     124.347    -115.772
  O       -4.605     127.025    -120.668
  O       -2.417     127.343    -119.393
  H       -2.586     128.267    -119.656
  H       -6.447     123.966    -114.201
  H        0.230     124.621    -116.272
  H       -2.208     124.783    -116.685
  H       -4.595     122.960    -114.787
  H       -4.182     125.524    -113.509
  H       -4.352     126.655    -115.630
  H       -6.485     124.576    -116.334
  H        1.480     123.010    -113.161
  H       -5.595     124.942    -118.656
  H        1.966     123.704    -114.681
  H       -6.498     126.332    -118.014
  P       -6.203     128.420    -115.448
  C       -8.777     128.556    -115.755
  O       -7.620     129.108    -115.157
  O       -6.115     128.384    -117.048
  O       -5.029     129.129    -114.857
  H       -5.483     129.058    -117.356
  H       -9.640     128.782    -115.123
  H       -8.695     127.471    -115.870
  H       -8.929     129.014    -116.735
  H       -2.592     123.436    -120.990
  H       -2.054     125.029    -121.465
  H       -3.704     124.539    -121.764

 3  4  5  6  7  8  9  10  11  12  13  24  27  28  29  30  32 0
 6-311+G(2d,p)
 ****
 34  35 0
 6-311+G(2d,p)
 ****
 1  2  14  15  16  17  18  19  20  21  22  23  25  26 0
 3-21G
 ****
 31  33  36  37  38  39  40  41  42  43  44  45  46 0
 3-21G
 ****


