%nproc=1
%NoSave
%Mem=1900MB
#P OB98/GEN NMR

erre ene a

0 1
  C      640.625      -4.735     229.870
  O      641.562      -4.077     229.043
  H      640.521      -4.170     230.797
  H      640.981      -5.740     230.106
  H      639.649      -4.788     229.379
  P      641.714      -4.630     227.541
  C      639.612      -3.375     226.666
  O      640.239      -4.631     226.906
  C      638.840      -3.415     225.352
  O      639.753      -3.378     224.231
  C      637.985      -4.662     225.165
  O      636.732      -4.548     225.826
  C      637.808      -4.654     223.652
  O      636.823      -3.671     223.281
  C      639.200      -4.214     223.177
  N      640.492      -7.850     219.888
  C      639.483      -6.909     219.818
  N      638.697      -6.951     218.722
  N      639.259      -6.012     220.743
  C      640.112      -6.100     221.788
  C      641.149      -6.985     221.969
  C      641.397      -7.968     220.938
  O      642.291      -8.804     220.937
  N      641.807      -6.757     223.154
  C      641.150      -5.750     223.697
  N      640.113      -5.323     222.914
  O      642.023      -6.189     227.752
  O      642.769      -3.973     226.718
  H      637.245      -2.798     223.394
  H      642.647      -6.483     227.057
  H      640.613      -8.527     219.151
  H      641.393      -5.300     224.652
  H      639.154      -3.610     222.265
  H      637.467      -5.612     223.263
  H      638.786      -7.643     217.994
  H      638.524      -5.567     225.462
  H      637.967      -6.248     218.630
  H      638.221      -2.506     225.294
  H      640.381      -2.596     226.616
  H      638.935      -3.149     227.496
  P      635.962      -5.911     226.196
  C      636.699      -6.400     228.643
  O      636.907      -6.662     227.258
  O      636.127      -6.791     224.875
  O      634.536      -5.740     226.593
  H      635.418      -7.462     224.827
  H      637.397      -6.967     229.222
  H      635.702      -6.679     228.913
  H      636.841      -5.357     228.834

 6  7  8  9  10  11  12  13  14  15  26  29  33  34 0
 6-311+G(2d,p)
 ****
 36  38  39  40  41 0
 6-311+G(2d,p)
 ****
 1  2  3  4  5  16  17  18  19  20  21  22  23  24  25 0
 3-21G
 ****
 27  28  30  31  32  35  37  42  43  44  45  46  47 0
 3-21G
 ****
 48  49 0
 3-21G
 ****


