%nproc=1
%NoSave
%Mem=1900MB
#P OB98/GEN NMR

erre ene a

0 1
  C       85.721    -308.176    -136.015
  O       84.693    -308.992    -136.541
  H       85.480    -307.121    -136.165
  H       85.810    -308.369    -134.943
  H       86.676    -308.413    -136.496
  P       84.423    -308.879    -138.119
  C       86.329    -310.588    -138.545
  O       85.795    -309.306    -138.837
  C       87.442    -310.929    -139.531
  O       88.102    -312.149    -139.135
  C       86.978    -311.158    -140.967
  O       86.762    -309.934    -141.652
  C       88.171    -311.912    -141.532
  O       89.225    -310.985    -141.852
  C       88.585    -312.792    -140.343
  N       89.414    -317.564    -141.996
  C       90.184    -316.453    -142.021
  N       89.903    -315.226    -141.542
  C       88.686    -315.209    -140.972
  C       87.797    -316.261    -140.851
  C       88.198    -317.488    -141.398
  N       87.372    -318.602    -141.427
  N       86.640    -315.853    -140.213
  C       86.822    -314.571    -139.977
  N       88.047    -314.136    -140.410
  O       84.347    -307.294    -138.353
  O       83.195    -309.570    -138.604
  H       88.909    -310.455    -142.609
  H       83.411    -307.017    -138.362
  H       91.154    -316.567    -142.493
  H       86.099    -313.920    -139.499
  H       89.673    -312.875    -140.250
  H       87.934    -312.464    -142.447
  H       86.095    -311.805    -141.002
  H       88.188    -310.124    -139.488
  H       85.535    -311.338    -138.622
  H       87.551    -319.223    -142.211
  H       86.401    -318.408    -141.212
  H       86.716    -310.582    -137.522
  P       86.022    -309.997    -143.075
  C       84.042    -308.643    -142.105
  O       84.451    -309.826    -142.779
  O       86.167    -311.537    -143.483
  O       86.585    -309.104    -144.124
  H       86.601    -311.609    -144.355
  H       82.980    -308.657    -141.973
  H       84.318    -307.788    -142.686
  H       84.520    -308.594    -141.149

 6  7  8  9  10  11  12  13  14  15  25  28  32  33  34  35 0
 6-311+G(2d,p)
 ****
 36  39  40 0
 6-311+G(2d,p)
 ****
 1  2  3  4  5  16  17  18  19  20  21  22  23  24 0
 3-21G
 ****
 26  27  29  30  31  37  38  41  42  43  44  45  46  47  48 0
 3-21G
 ****


