%nproc=1
%NoSave
%Mem=1900MB
#P OB98/GEN NMR

erre ene a

0 1
  C      263.503    -241.411      70.732
  O      262.603    -240.588      69.986
  P      262.679    -240.540      68.383
  C      260.199    -240.162      67.880
  O      261.503    -239.593      67.831
  C      259.484    -239.935      69.218
  O      259.252    -238.524      69.450
  C      258.132    -240.640      69.353
  O      258.010    -240.993      70.735
  C      257.155    -239.539      68.988
  O      255.834    -239.806      69.439
  C      257.839    -238.321      69.622
  N      257.393    -237.063      69.028
  C      256.963    -236.067      69.905
  O      256.914    -236.286      71.117
  N      256.550    -234.864      69.389
  C      256.481    -234.707      68.104
  N      256.042    -233.501      67.651
  C      256.842    -235.763      67.139
  C      257.295    -236.899      67.667
  O      262.763    -241.875      67.720
  O      264.004    -239.684      68.090
  H      255.566    -240.688      69.102
  H      264.397    -239.979      67.247
  H      256.744    -235.597      66.076
  H      257.593    -237.733      67.042
  H      257.638    -238.284      70.700
  H      257.116    -239.427      67.897
  H      258.034    -241.522      68.716
  H      260.161    -240.278      70.011
  H      255.779    -232.813      68.346
  H      260.284    -241.239      67.699
  H      255.842    -233.315      66.681
  H      259.600    -239.746      67.063
  P      257.371    -242.383      71.204
  C      258.647    -242.269      73.419
  O      257.377    -242.379      72.806
  O      257.982    -243.596      70.584
  O      255.814    -242.264      70.841
  H      255.416    -243.154      70.835
  H      258.513    -242.064      74.483
  H      259.229    -241.457      72.971
  H      259.194    -243.210      73.305
  H      263.297    -241.308      71.777
  H      264.510    -241.107      70.535
  H      263.375    -242.433      70.442

 3  4  5  6  7  8  9  10  11  12  13  23  27  28  29  30  32 0
 6-311+G(2d,p)
 ****
 34  35 0
 6-311+G(2d,p)
 ****
 1  2  14  15  16  17  18  19  20  21  22  24  25  26 0
 3-21G
 ****
 31  33  36  37  38  39  40  41  42  43  44  45  46 0
 3-21G
 ****


