%nproc=1
%NoSave
%Mem=1900MB
#P OB98/GEN NMR

erre ene a

0 1
  C      883.439     122.970     914.993
  O      882.933     123.789     913.924
  P      881.493     124.468     913.947
  C      882.346     126.330     912.364
  O      881.631     126.023     913.552
  C      881.696     127.494     911.586
  O      880.343     127.152     911.206
  C      881.579     128.788     912.380
  O      882.833     129.449     912.458
  C      880.528     129.528     911.561
  O      881.098     130.176     910.413
  C      879.587     128.372     911.128
  N      878.375     128.313     911.927
  C      877.237     127.774     911.308
  O      877.268     127.444     910.133
  N      876.077     127.657     912.051
  C      876.051     128.102     913.267
  N      874.877     127.941     913.960
  C      877.203     128.752     913.926
  C      878.325     128.809     913.219
  O      880.720     124.232     915.215
  O      880.707     123.854     912.691
  H      881.590     129.478     909.933
  H      879.759     123.816     912.907
  H      877.116     129.138     914.940
  H      879.222     129.268     913.621
  H      879.310     128.484     910.063
  H      880.002     130.315     912.142
  H      881.183     128.588     913.393
  H      882.271     127.645     910.666
  H      874.119     127.496     913.471
  H      882.348     125.438     911.732
  H      874.746     128.247     914.912
  H      883.374     126.571     912.624
  P      883.391     129.928     913.883
  C      885.208     128.107     913.763
  O      884.167     128.682     914.540
  O      882.377     130.591     914.785
  O      884.582     130.942     913.522
  H      884.628     131.623     914.213
  H      885.896     127.590     914.428
  H      885.739     128.873     913.202
  H      884.761     127.383     913.068
  H      884.423     122.630     914.747
  H      882.795     122.127     915.132
  H      883.475     123.544     915.895

 3  4  5  6  7  8  9  10  11  12  13  23  27  28  29  30  32 0
 6-311+G(2d,p)
 ****
 34  35 0
 6-311+G(2d,p)
 ****
 1  2  14  15  16  17  18  19  20  21  22  24  25  26 0
 3-21G
 ****
 31  33  36  37  38  39  40  41  42  43  44  45  46 0
 3-21G
 ****


