%nproc=1
%NoSave
%Mem=1900MB
#P OB98/GEN NMR

erre ene a

0 1
  C       54.361      -2.417     166.493
  O       54.137      -2.639     167.886
  P       54.792      -3.930     168.575
  C       56.729      -2.676     169.721
  O       56.363      -3.658     168.757
  C       58.132      -2.948     170.265
  O       58.166      -4.135     171.083
  C       59.165      -3.181     169.175
  O       59.516      -1.963     168.540
  C       60.283      -3.850     169.960
  O       61.096      -2.875     170.633
  C       59.497      -4.686     170.994
  N       59.467      -6.107     170.680
  C       60.636      -6.823     170.962
  O       61.625      -6.245     171.408
  N       60.655      -8.173     170.712
  C       59.604      -8.753     170.221
  N       59.679     -10.092     169.997
  C       58.357      -8.032     169.899
  C       58.361      -6.723     170.144
  O       54.440      -5.242     167.958
  O       54.250      -3.838     170.084
  H       60.474      -2.267     171.079
  H       54.172      -4.743     170.445
  H       57.506      -8.561     169.496
  H       57.488      -6.116     169.936
  H       59.944      -4.574     171.991
  H       60.946      -4.430     169.311
  H       58.765      -3.883     168.431
  H       58.431      -2.091     170.884
  H       60.549     -10.561     170.214
  H       56.006      -2.680     170.538
  H       58.900     -10.641     169.663
  H       56.673      -1.686     169.254
  P       59.804      -2.001     166.964
  C       58.859       0.327     166.332
  O       58.714      -1.077     166.246
  O       59.357      -3.486     166.554
  O       61.225      -1.741     166.581
  H       59.927      -3.811     165.835
  H       58.248       0.790     165.553
  H       59.900       0.631     166.188
  H       58.507       0.674     167.307
  H       53.860      -1.521     166.190
  H       53.979      -3.246     165.934
  H       55.411      -2.318     166.312

 3  4  5  6  7  8  9  10  11  12  13  23  27  28  29  30  32 0
 6-311+G(2d,p)
 ****
 34  35 0
 6-311+G(2d,p)
 ****
 1  2  14  15  16  17  18  19  20  21  22  24  25  26 0
 3-21G
 ****
 31  33  36  37  38  39  40  41  42  43  44  45  46 0
 3-21G
 ****


