%nproc=1
%NoSave
%Mem=1900MB
#P OB98/GEN NMR

erre ene a

0 1
  C     -895.881    -480.241     395.294
  O     -895.591    -481.013     396.450
  H     -895.171    -480.484     394.513
  H     -895.801    -479.176     395.536
  H     -896.891    -480.451     394.922
  P     -896.651    -481.074     397.644
  C     -896.401    -483.606     398.076
  O     -896.211    -482.295     398.584
  C     -895.971    -484.658     399.091
  O     -894.521    -484.770     399.084
  C     -896.401    -484.335     400.537
  O     -896.601    -485.586     401.211
  C     -895.151    -483.656     401.079
  O     -895.151    -483.619     402.497
  C     -894.061    -484.500     400.417
  N     -892.751    -483.826     400.424
  C     -891.871    -484.185     401.443
  O     -892.161    -485.003     402.326
  N     -890.661    -483.545     401.444
  C     -890.281    -482.568     400.583
  O     -889.201    -482.010     400.650
  C     -891.271    -482.193     399.553
  C     -892.441    -482.838     399.516
  O     -898.091    -481.085     397.222
  O     -896.301    -479.790     398.535
  H     -895.181    -484.523     402.848
  H     -897.111    -479.463     398.976
  H     -890.011    -483.801     402.176
  H     -890.991    -481.417     398.860
  H     -893.191    -482.577     398.769
  H     -893.951    -485.459     400.934
  H     -895.101    -482.617     400.723
  H     -897.291    -483.714     400.598
  H     -896.361    -485.644     398.784
  H     -895.811    -483.704     397.157
  H     -897.461    -483.747     397.809
  P     -897.771    -485.778     402.306
  C     -899.191    -487.414     400.912
  O     -898.441    -487.224     402.095
  O     -898.761    -484.646     402.359
  O     -896.991    -485.904     403.697
  H     -897.581    -485.603     404.435
  H     -899.580    -488.410     400.893
  H     -898.560    -487.261     400.061
  H     -900.000    -486.714     400.886

 6  7  8  9  10  11  12  13  14  15  16  26  31  32  33  34  35 0
 6-311+G(2d,p)
 ****
 36  37 0
 6-311+G(2d,p)
 ****
 1  2  3  4  5  17  18  19  20  21  22  23  24  25 0
 3-21G
 ****
 27  28  29  30  38  39  40  41  42  43  44  45 0
 3-21G
 ****


