%nproc=1
%NoSave
%Mem=1900MB
#P OB98/GEN NMR

erre ene a

0 1
  C     -170.309    -423.726     477.540
  O     -170.777    -422.585     478.224
  P     -170.924    -422.499     479.812
  C     -172.882    -422.069     481.487
  O     -172.487    -422.439     480.174
  C     -174.019    -421.042     481.450
  O     -173.522    -419.817     480.848
  C     -175.186    -421.523     480.560
  O     -176.475    -421.254     481.099
  C     -174.858    -420.909     479.206
  O     -175.980    -420.823     478.331
  C     -174.220    -419.583     479.609
  N     -173.577    -416.404     475.694
  C     -174.635    -416.492     476.574
  N     -175.739    -415.783     476.260
  N     -174.629    -417.252     477.642
  C     -173.506    -418.003     477.766
  C     -172.389    -417.994     476.960
  C     -172.398    -417.118     475.807
  O     -171.527    -417.089     474.938
  N     -171.466    -418.932     477.355
  C     -172.045    -419.530     478.379
  N     -173.297    -419.028     478.645
  O     -170.002    -421.563     480.522
  O     -170.530    -424.004     480.254
  H     -176.380    -421.710     478.275
  H     -170.073    -423.940     481.124
  H     -173.673    -415.859     474.847
  H     -171.612    -420.355     478.941
  H     -174.977    -418.814     479.782
  H     -174.124    -421.564     478.718
  H     -175.829    -415.304     475.364
  H     -175.173    -422.612     480.472
  H     -176.605    -416.022     476.732
  H     -174.343    -420.808     482.476
  H     -172.000    -421.631     481.969
  H     -173.176    -422.949     482.069
  P     -177.843    -422.062     480.884
  C     -180.243    -421.433     480.251
  O     -178.874    -421.117     480.101
  O     -178.501    -422.172     482.339
  O     -177.680    -423.425     480.287
  H     -178.903    -423.053     482.445
  H     -180.816    -420.913     479.470
  H     -180.600    -421.096     481.227
  H     -180.409    -422.510     480.142
  H     -170.303    -423.533     476.487
  H     -170.953    -424.555     477.747
  H     -169.316    -423.955     477.866

 3  4  5  6  7  8  9  10  11  12  23  26  30  31 0
 6-311+G(2d,p)
 ****
 33  35  36  37  38 0
 6-311+G(2d,p)
 ****
 1  2  13  14  15  16  17  18  19  20  21  22  24  25 0
 3-21G
 ****
 27  28  29  32  34  39  40  41  42  43  44  45  46  47  48  49 0
 3-21G
 ****


