%nproc=1
%NoSave
%Mem=1900MB
#P OB98/GEN NMR

erre ene a

0 1
  C      -63.135     301.402      11.358
  O      -63.240     300.373      10.398
  H      -62.308     302.059      11.074
  H      -62.928     300.983      12.346
  H      -64.055     301.995      11.395
  P      -64.464     299.340      10.499
  C      -62.968     297.506      11.514
  O      -64.117     298.323      11.688
  C      -63.342     296.035      11.682
  O      -62.281     295.182      11.190
  C      -63.570     295.620      13.131
  O      -64.824     296.083      13.600
  C      -63.449     294.108      13.010
  O      -64.658     293.527      12.495
  C      -62.303     293.972      11.976
  N      -60.999     293.725      12.608
  C      -60.750     292.414      13.008
  O      -61.558     291.501      12.859
  N      -59.546     292.201      13.631
  C      -58.638     293.167      13.961
  O      -57.684     292.970      14.709
  C      -58.918     294.512      13.449
  C      -60.076     294.732      12.820
  O      -64.880     298.698       9.217
  O      -65.650     300.223      11.124
  H      -66.261     300.491      10.408
  H      -64.844     293.974      11.648
  H      -59.378     291.267      13.968
  H      -58.192     295.295      13.633
  H      -60.320     295.729      12.458
  H      -62.507     293.147      11.284
  H      -63.246     293.627      13.969
  H      -62.754     295.989      13.763
  H      -64.238     295.840      11.075
  H      -62.226     297.781      12.277
  H      -62.543     297.688      10.521
  P      -65.029     296.501      15.132
  C      -65.679     294.101      15.762
  O      -64.813     295.191      16.033
  O      -66.293     297.246      15.417
  O      -63.748     297.394      15.479
  H      -64.041     298.245      15.853
  H      -65.446     293.288      16.418
  H      -65.551     293.788      14.747
  H      -66.693     294.404      15.917

 6  7  8  9  10  11  12  13  14  15  16  27  31  32  33  34  35 0
 6-311+G(2d,p)
 ****
 36  37 0
 6-311+G(2d,p)
 ****
 1  2  3  4  5  17  18  19  20  21  22  23  24  25 0
 3-21G
 ****
 26  28  29  30  38  39  40  41  42  43  44  45 0
 3-21G
 ****


