%nproc=1
%NoSave
%Mem=1900MB
#P OB98/GEN NMR

erre ene a

0 1
  C        1.001      29.274      12.947
  O        1.162      30.129      11.829
  P       -0.021      30.334      10.775
  C       -0.904      32.382       9.391
  O       -0.196      31.897      10.510
  C       -0.410      33.797       9.066
  O       -0.931      34.739      10.026
  C        1.114      33.881       9.102
  O        1.655      33.704       7.803
  C        1.355      35.264       9.674
  O        1.238      36.263       8.645
  C        0.188      35.393      10.681
  N        0.352      34.789      12.017
  C        0.815      35.568      13.073
  O        1.076      36.762      12.976
  N        0.995      34.908      14.263
  C        0.718      33.593      14.496
  O        1.105      32.965      15.475
  C       -0.016      32.904      13.431
  C       -0.143      33.514      12.253
  O       -1.326      29.954      11.619
  O        0.089      29.530       9.522
  H        1.465      35.833       7.801
  H       -1.605      29.039      11.428
  H        1.463      35.434      14.995
  H       -0.381      31.904      13.623
  H       -0.650      33.007      11.436
  H       -0.084      36.443      10.834
  H        2.364      35.356      10.073
  H        1.518      33.138       9.800
  H       -0.784      34.084       8.075
  H       -1.979      32.391       9.602
  H       -0.749      31.721       8.532
  P        3.139      33.130       7.637
  C        4.438      32.071       5.698
  O        3.166      32.442       6.189
  O        3.630      32.278       8.760
  O        4.027      34.452       7.461
  H        4.434      34.695       8.318
  H        4.305      31.461       4.802
  H        4.985      31.491       6.447
  H        5.007      32.967       5.435
  H        1.900      29.273      13.527
  H        0.793      28.280      12.609
  H        0.188      29.623      13.549

 3  4  5  6  7  8  9  10  11  12  13  23  28  29  30  31  32 0
 6-311+G(2d,p)
 ****
 33  34 0
 6-311+G(2d,p)
 ****
 1  2  14  15  16  17  18  19  20  21  22  24  25  26  27 0
 3-21G
 ****
 35  36  37  38  39  40  41  42  43  44  45 0
 3-21G
 ****


