%nproc=1
%NoSave
%Mem=1900MB
#P OB98/GEN NMR

erre ene a

0 1
  C      -24.767    -155.381    -110.995
  O      -24.949    -154.413    -112.035
  P      -23.782    -153.335    -112.258
  C      -24.593    -151.844    -110.293
  O      -23.516    -152.569    -110.871
  C      -24.158    -151.125    -109.005
  O      -24.141    -152.046    -107.879
  C      -22.758    -150.510    -109.092
  O      -22.722    -149.351    -108.249
  C      -21.884    -151.584    -108.477
  O      -20.620    -151.066    -108.062
  C      -22.798    -152.069    -107.351
  N      -19.285    -154.793    -104.962
  C      -19.299    -153.451    -105.297
  N      -18.231    -152.721    -104.906
  N      -20.271    -152.875    -105.955
  C      -21.288    -153.724    -106.249
  C      -21.390    -155.070    -105.980
  C      -20.293    -155.698    -105.271
  O      -20.222    -156.883    -104.961
  N      -22.566    -155.591    -106.461
  C      -23.169    -154.561    -107.025
  N      -22.452    -153.401    -106.892
  O      -24.490    -152.223    -113.167
  O      -22.567    -153.887    -112.927
  H      -20.011    -151.832    -107.957
  H      -24.139    -152.268    -114.075
  H      -18.505    -155.183    -104.464
  H      -24.117    -154.600    -107.541
  H      -22.763    -151.411    -106.474
  H      -21.703    -152.384    -109.206
  H      -17.473    -153.090    -104.352
  H      -22.439    -150.232    -110.101
  H      -18.235    -151.727    -105.103
  H      -24.892    -150.344    -108.776
  H      -25.423    -152.520    -110.066
  H      -24.983    -151.136    -111.030
  P      -22.840    -147.923    -108.970
  C      -20.305    -147.616    -109.454
  O      -21.602    -147.831    -109.982
  O      -22.457    -146.883    -107.813
  O      -24.180    -147.632    -109.564
  H      -22.858    -146.014    -107.993
  H      -19.753    -148.560    -109.471
  H      -20.339    -147.233    -108.429
  H      -19.785    -146.889    -110.084
  H      -25.616    -156.031    -110.960
  H      -24.663    -154.880    -110.055
  H      -23.886    -155.955    -111.193

 3  4  5  6  7  8  9  10  11  12  23  26  30  31 0
 6-311+G(2d,p)
 ****
 33  35  36  37  38 0
 6-311+G(2d,p)
 ****
 1  2  13  14  15  16  17  18  19  20  21  22  24  25 0
 3-21G
 ****
 27  28  29  32  34  39  40  41  42  43  44  45  46  47  48  49 0
 3-21G
 ****


