%nproc=1
%NoSave
%Mem=1900MB
#P OB98/GEN NMR

erre ene a

0 1
  C     -107.737       8.767      37.622
  O     -109.073       8.256      37.610
  P     -109.901       8.093      38.976
  C     -111.648       9.935      38.637
  O     -111.427       8.529      38.715
  C     -112.573      10.342      37.483
  O     -112.048       9.888      36.210
  C     -114.010       9.813      37.590
  O     -114.841      10.821      37.005
  C     -113.964       8.573      36.719
  O     -115.257       8.141      36.312
  C     -113.037       9.045      35.590
  N     -112.427       7.930      34.871
  C     -112.038       8.166      33.551
  O     -112.264       9.256      33.021
  N     -111.445       7.148      32.841
  C     -111.344       5.971      33.378
  N     -110.770       4.995      32.620
  C     -111.819       5.653      34.738
  C     -112.335       6.674      35.424
  O     -109.268       8.730      40.169
  O     -110.004       6.505      39.175
  H     -115.150       7.527      35.556
  H     -110.041       6.301      40.131
  H     -111.738       4.650      35.130
  H     -112.708       6.544      36.432
  H     -113.591       9.661      34.867
  H     -113.495       7.748      37.273
  H     -114.318       9.601      38.616
  H     -112.584      11.439      37.445
  H     -110.481       5.247      31.681
  H     -110.678      10.432      38.510
  H     -110.747       4.025      32.892
  H     -112.064      10.283      39.588
  P     -115.604      11.914      37.892
  C     -114.056      13.948      37.747
  O     -115.246      13.347      37.270
  O     -115.375      11.800      39.366
  O     -117.156      11.731      37.527
  H     -117.699      12.156      38.219
  H     -113.807      14.800      37.109
  H     -113.224      13.237      37.728
  H     -114.205      14.301      38.772
  H     -107.359       8.799      36.622
  H     -107.117       8.130      38.217
  H     -107.736       9.754      38.036

 3  4  5  6  7  8  9  10  11  12  13  23  27  28  29  30  32 0
 6-311+G(2d,p)
 ****
 34  35 0
 6-311+G(2d,p)
 ****
 1  2  14  15  16  17  18  19  20  21  22  24  25  26 0
 3-21G
 ****
 31  33  36  37  38  39  40  41  42  43  44  45  46 0
 3-21G
 ****


