%nproc=1
%NoSave
%Mem=1900MB
#P OB98/GEN NMR

erre ene a

0 1
  C     -364.286     192.235      92.301
  O     -364.887     191.335      91.387
  H     -365.001     193.031      92.536
  H     -363.395     192.687      91.856
  H     -364.015     191.712      93.225
  P     -363.952     190.153      90.829
  C     -364.408     190.930      88.378
  O     -363.449     190.713      89.407
  C     -363.737     191.581      87.171
  O     -363.473     192.976      87.425
  C     -362.384     190.976      86.800
  O     -362.486     189.746      86.100
  C     -361.841     192.087      85.908
  O     -362.501     192.046      84.632
  C     -362.251     193.333      86.723
  N     -361.215     193.771      87.669
  C     -360.112     194.441      87.132
  O     -360.020     194.639      85.917
  N     -359.105     194.838      87.974
  C     -359.203     194.618      89.245
  N     -358.165     195.028      90.037
  C     -360.356     193.925      89.864
  C     -361.313     193.536      89.024
  O     -365.001     189.020      90.406
  O     -362.868     189.687      91.740
  H     -362.165     192.802      84.119
  H     -364.539     188.300      89.907
  H     -360.387     193.749      90.928
  H     -362.192     193.025      89.403
  H     -362.492     194.170      86.055
  H     -360.773     191.995      85.719
  H     -361.735     190.876      87.677
  H     -364.440     191.527      86.330
  H     -357.364     195.446      89.584
  H     -365.191     191.589      88.770
  H     -358.079     194.769      91.010
  H     -364.855     189.980      88.075
  P     -361.159     188.858      85.973
  C     -361.208     188.958      83.368
  O     -360.483     189.225      84.566
  O     -361.724     187.378      85.742
  O     -360.243     188.921      87.161
  H     -361.141     186.709      86.152
  H     -360.624     189.258      82.523
  H     -362.127     189.505      83.378
  H     -361.417     187.911      83.303

 6  7  8  9  10  11  12  13  14  15  16  26  30  31  32  33  35 0
 6-311+G(2d,p)
 ****
 37  38 0
 6-311+G(2d,p)
 ****
 1  2  3  4  5  17  18  19  20  21  22  23  24  25 0
 3-21G
 ****
 27  28  29  34  36  39  40  41  42  43  44  45  46 0
 3-21G
 ****


