%nproc=1
%NoSave
%Mem=1900MB
#P OB98/GEN NMR

erre ene a

0 1
  C       33.725     234.092    -210.875
  O       34.602     233.489    -209.944
  H       33.174     234.909    -210.403
  H       34.319     234.501    -211.699
  H       33.028     233.350    -211.276
  P       33.931     232.815    -208.651
  C       34.123     234.189    -206.451
  O       33.475     234.034    -207.708
  C       35.427     234.962    -206.640
  O       35.209     236.111    -207.487
  C       36.021     235.511    -205.347
  O       36.752     234.529    -204.632
  C       36.942     236.585    -205.898
  O       38.134     235.981    -206.432
  C       36.092     237.170    -207.034
  N       36.245     242.028    -205.408
  C       37.223     241.145    -205.706
  N       37.101     239.868    -206.132
  C       35.803     239.528    -206.233
  C       34.706     240.317    -205.952
  C       34.954     241.631    -205.527
  N       33.964     242.530    -205.204
  N       33.532     239.600    -206.142
  C       33.927     238.420    -206.559
  N       35.290     238.318    -206.620
  O       35.178     232.190    -207.862
  O       32.861     231.808    -208.925
  H       38.579     235.533    -205.683
  H       34.870     231.494    -207.247
  H       38.241     241.514    -205.591
  H       33.265     237.602    -206.827
  H       36.694     237.492    -207.892
  H       37.260     237.309    -205.143
  H       35.259     235.982    -204.715
  H       36.143     234.302    -207.148
  H       34.348     233.201    -206.038
  H       34.252     243.378    -204.733
  H       33.011     242.194    -205.147
  H       33.458     234.728    -205.764
  P       36.931     234.748    -203.050
  C       39.463     235.145    -202.601
  O       38.194     235.724    -202.887
  O       37.484     233.335    -202.546
  O       35.688     235.166    -202.332
  H       37.253     233.183    -201.608
  H       40.198     235.918    -202.522
  H       39.734     234.474    -203.389
  H       39.410     234.608    -201.677

 6  7  8  9  10  11  12  13  14  15  25  28  32  33  34  35 0
 6-311+G(2d,p)
 ****
 36  39  40 0
 6-311+G(2d,p)
 ****
 1  2  3  4  5  16  17  18  19  20  21  22  23  24 0
 3-21G
 ****
 26  27  29  30  31  37  38  41  42  43  44  45  46  47 0
 3-21G
 ****
 48 0
 3-21G
 ****


