%nproc=1
%NoSave
%Mem=1900MB
#P OB98/GEN NMR

erre ene a

0 1
  C     1843.126    2114.365    -862.061
  O     1842.536    2113.532    -861.107
  H     1844.139    2114.090    -862.263
  H     1842.536    2114.258    -862.999
  H     1843.056    2115.418    -861.727
  P     1843.209    2113.533    -859.636
  C     1840.811    2113.571    -858.629
  O     1842.081    2112.936    -858.608
  C     1839.911    2112.869    -857.631
  O     1840.623    2112.651    -856.381
  C     1838.637    2113.637    -857.250
  O     1837.624    2113.500    -858.213
  C     1838.286    2112.953    -855.935
  O     1837.656    2111.709    -856.200
  C     1839.661    2112.778    -855.286
  N     1839.086    2114.822    -850.636
  C     1838.541    2113.731    -851.181
  N     1838.729    2113.225    -852.462
  C     1839.632    2114.015    -853.132
  C     1840.278    2115.157    -852.673
  C     1839.966    2115.551    -851.381
  N     1840.533    2116.671    -850.773
  N     1841.064    2115.716    -853.657
  C     1840.914    2114.875    -854.662
  N     1840.050    2113.855    -854.417
  O     1843.278    2115.085    -859.239
  O     1844.536    2112.858    -859.532
  H     1836.903    2111.879    -856.808
  H     1843.966    2115.233    -858.551
  H     1837.856    2113.136    -850.596
  H     1841.454    2115.006    -855.661
  H     1839.730    2111.833    -854.682
  H     1837.557    2113.579    -855.345
  H     1838.885    2114.706    -857.094
  H     1839.649    2111.869    -858.010
  H     1840.366    2113.459    -859.646
  H     1840.140    2116.950    -849.863
  H     1841.072    2117.307    -851.331
  H     1840.913    2114.617    -858.369
  P     1836.706    2114.786    -858.533
  C     1836.067    2113.561    -860.784
  O     1835.637    2114.237    -859.626
  O     1837.719    2115.688    -859.451
  O     1836.160    2115.510    -857.347
  H     1837.488    2116.632    -859.372
  H     1835.217    2113.283    -861.371
  H     1836.610    2112.682    -860.503
  H     1836.701    2114.204    -861.358

 6  7  8  9  10  11  12  13  14  15  25  28  32  33  34  35 0
 6-311+G(2d,p)
 ****
 36  39  40 0
 6-311+G(2d,p)
 ****
 1  2  3  4  5  16  17  18  19  20  21  22  23  24 0
 3-21G
 ****
 26  27  29  30  31  37  38  41  42  43  44  45  46  47 0
 3-21G
 ****
 48 0
 3-21G
 ****


