%nproc=1
%NoSave
%Mem=1900MB
#P OB98/GEN NMR

erre ene a

0 1
  C      598.065     329.015     451.492
  O      596.944     329.822     451.167
  P      595.655     329.089     450.554
  C      596.240     330.039     448.211
  O      595.253     329.883     449.220
  C      595.623     330.572     446.918
  O      594.800     329.530     446.326
  C      594.733     331.812     447.101
  O      594.906     332.617     445.933
  C      593.345     331.201     447.150
  O      592.299     332.128     446.933
  C      593.497     330.101     446.096
  N      588.941     328.586     444.338
  C      589.748     329.614     443.984
  N      590.949     329.951     444.502
  C      591.311     329.087     445.462
  C      590.591     328.007     445.941
  C      589.346     327.762     445.331
  N      588.526     326.716     445.699
  N      591.277     327.370     446.954
  C      592.387     328.062     447.088
  N      592.464     329.091     446.197
  O      594.495     329.489     451.580
  O      595.783     327.603     450.403
  H      591.452     331.654     446.789
  H      593.884     328.743     451.729
  H      589.371     330.252     443.191
  H      593.163     327.858     447.822
  H      593.471     330.510     445.079
  H      593.180     330.764     448.141
  H      594.989     332.403     447.987
  H      596.433     330.793     446.211
  H      596.695     329.064     447.997
  H      587.580     326.744     445.349
  H      588.743     326.241     446.567
  H      597.032     330.704     448.574
  P      595.871     333.896     446.001
  C      594.019     335.580     445.429
  O      595.199     334.948     444.984
  O      597.124     333.377     445.151
  O      596.206     334.387     447.370
  H      596.848     333.010     444.289
  H      593.725     336.335     444.691
  H      594.188     336.079     446.393
  H      593.210     334.849     445.521
  H      598.845     329.631     451.888
  H      598.415     328.519     450.611
  H      597.780     328.287     452.222

 3  4  5  6  7  8  9  10  11  12  22  25  29  30  31  32 0
 6-311+G(2d,p)
 ****
 33  36  37 0
 6-311+G(2d,p)
 ****
 1  2  13  14  15  16  17  18  19  20  21  23  24  26 0
 3-21G
 ****
 27  28  34  35  38  39  40  41  42  43  44  45  46  47  48 0
 3-21G
 ****


