%nproc=1
%NoSave
%Mem=1900MB
#P OB98/GEN NMR

erre ene a

0 1
  C     -514.129    -299.809    -898.800
  O     -513.341    -300.613    -897.890
  P     -512.996    -302.114    -898.330
  C     -514.899    -303.066    -896.820
  O     -513.524    -303.103    -897.170
  C     -515.398    -304.467    -896.480
  O     -515.395    -305.348    -897.620
  C     -514.594    -305.182    -895.410
  O     -514.967    -304.757    -894.100
  C     -514.989    -306.627    -895.620
  O     -516.256    -306.878    -895.010
  C     -515.097    -306.685    -897.160
  N     -512.298    -310.846    -898.280
  C     -513.445    -310.678    -897.570
  N     -514.119    -309.527    -897.280
  C     -513.502    -308.484    -897.870
  C     -512.339    -308.485    -898.630
  C     -511.738    -309.742    -898.830
  N     -510.582    -309.876    -899.580
  N     -512.024    -307.211    -899.050
  C     -512.997    -306.460    -898.550
  N     -513.893    -307.180    -897.830
  O     -511.396    -302.198    -898.180
  O     -513.434    -302.449    -899.730
  H     -516.881    -306.223    -895.350
  H     -511.034    -302.796    -898.870
  H     -513.852    -311.594    -897.140
  H     -513.081    -305.370    -898.690
  H     -515.944    -307.323    -897.470
  H     -514.257    -307.321    -895.190
  H     -513.512    -305.049    -895.580
  H     -516.458    -304.378    -896.140
  H     -515.479    -302.649    -897.630
  H     -510.197    -310.822    -899.690
  H     -510.164    -309.054    -900.000
  H     -515.024    -302.370    -895.970
  P     -514.437    -303.314    -893.600
  C     -512.065    -304.253    -893.030
  O     -513.257    -303.616    -892.560
  O     -515.646    -302.785    -892.670
  O     -514.108    -302.367    -894.710
  H     -515.680    -301.813    -892.710
  H     -511.281    -304.081    -892.290
  H     -511.751    -303.792    -893.970
  H     -512.232    -305.309    -893.150
  H     -514.280    -298.837    -898.378
  H     -515.077    -300.279    -898.962
  H     -513.613    -299.716    -899.733

 3  4  5  6  7  8  9  10  11  12  22  25  29  30  31  32 0
 6-311+G(2d,p)
 ****
 33  36  37 0
 6-311+G(2d,p)
 ****
 1  2  13  14  15  16  17  18  19  20  21  23  24  26 0
 3-21G
 ****
 27  28  34  35  38  39  40  41  42  43  44  45  46  47  48 0
 3-21G
 ****


