%nproc=1
%NoSave
%Mem=1900MB
#P OB98/GEN NMR

erre ene a

0 1
  C       18.344     -65.803      18.608
  O       18.218     -64.414      18.868
  P       19.031     -63.811      20.113
  C       17.209     -64.532      21.801
  O       18.569     -64.645      21.406
  C       16.998     -65.113      23.194
  O       17.605     -66.432      23.250
  C       17.611     -64.274      24.327
  O       16.683     -64.203      25.418
  C       18.795     -65.109      24.785
  O       19.146     -64.841      26.138
  C       18.257     -66.517      24.533
  N       21.279     -69.317      27.452
  C       20.199     -68.531      27.798
  N       19.923     -68.435      29.118
  N       19.457     -67.892      26.934
  C       19.830     -68.104      25.647
  C       20.874     -68.867      25.178
  C       21.723     -69.519      26.151
  O       22.747     -70.155      25.913
  N       20.925     -68.852      23.807
  C       19.918     -68.080      23.447
  N       19.253     -67.563      24.531
  O       18.351     -62.378      20.321
  O       20.502     -63.688      19.913
  H       19.394     -63.899      26.188
  H       19.033     -61.680      20.279
  H       21.827     -69.773      28.160
  H       19.655     -67.843      22.425
  H       17.500     -66.778      25.284
  H       19.659     -64.886      24.149
  H       20.431     -68.929      29.834
  H       17.908     -63.264      24.028
  H       19.121     -67.882      29.391
  H       15.921     -65.251      23.355
  H       16.581     -65.074      21.087
  H       16.923     -63.475      21.787
  P       16.418     -62.738      26.021
  C       17.914     -63.449      28.031
  O       17.610     -62.471      27.056
  O       15.139     -62.950      26.959
  O       16.200     -61.687      24.985
  H       14.655     -62.111      27.071
  H       17.376     -64.387      27.858
  H       17.644     -63.065      29.017
  H       18.988     -63.650      28.009
  H       17.751     -66.062      17.756
  H       18.006     -66.357      19.459
  H       19.370     -66.038      18.414

 3  4  5  6  7  8  9  10  11  12  23  26  30  31  33  0
 6-311+G(2d,p)
 ****
 35  36  37  38 0
 6-311+G(2d,p)
 ****
 1  2  13  14  15  16  17  18  19  20  21  22  24  25  27  28  29 0
 3-21G
 ****
 32  34  39  40  41  42  43  44  45  46  47  48  49 0
 3-21G
 ****


