%nproc=1
%NoSave
%Mem=1900MB
#P OB98/GEN NMR

erre ene a

0 1
  C     1495.650     991.654    -120.217
  O     1495.933     991.745    -121.596
  P     1497.063     992.805    -122.060
  C     1498.614     990.879    -122.834
  O     1498.458     992.013    -121.989
  C     1499.716     991.137    -123.864
  O     1500.904     991.709    -123.233
  C     1500.208     989.922    -124.607
  O     1499.367     989.546    -125.683
  C     1501.567     990.401    -125.132
  O     1501.364     991.214    -126.312
  C     1502.078     991.260    -123.954
  N     1506.492     988.711    -123.640
  C     1505.810     989.241    -124.707
  N     1504.636     989.883    -124.699
  C     1504.125     989.982    -123.467
  C     1504.670     989.427    -122.293
  C     1505.910     988.793    -122.423
  N     1506.621     988.288    -121.337
  N     1503.847     989.698    -121.223
  C     1502.833     990.365    -121.717
  N     1502.964     990.557    -123.071
  O     1497.138     993.813    -120.810
  O     1496.766     993.508    -123.349
  H     1500.722     990.745    -126.844
  H     1497.499     994.665    -121.112
  H     1506.309     989.099    -125.680
  H     1501.987     990.751    -121.135
  H     1502.584     992.178    -124.303
  H     1502.225     989.583    -125.408
  H     1500.388     989.073    -123.914
  H     1499.354     991.892    -124.587
  H     1497.691     990.669    -123.366
  H     1507.574     988.008    -121.475
  H     1506.275     988.525    -120.406
  H     1498.899     990.008    -122.218
  P     1499.108     987.961    -125.900
  C     1496.526     987.953    -125.537
  O     1497.813     987.634    -125.022
  O     1500.323     987.288    -125.132
  O     1499.046     987.561    -127.344
  H     1500.513     986.382    -125.482
  H     1495.792     987.391    -124.957
  H     1496.441     987.707    -126.596
  H     1496.333     989.017    -125.374
  H     1494.889     990.919    -120.057
  H     1495.310     992.603    -119.859
  H     1496.536     991.371    -119.689

 3  4  5  6  7  8  9  10  11  12  22  25  29  30  31  32 0
 6-311+G(2d,p)
 ****
 33  36  37 0
 6-311+G(2d,p)
 ****
 1  2  13  14  15  16  17  18  19  20  21  23  24  26 0
 3-21G
 ****
 27  28  34  35  38  39  40  41  42  43  44  45  46  47  48 0
 3-21G
 ****


