%nproc=1
%NoSave
%Mem=1900MB
#P OB98/GEN NMR

erre ene a

0 1
  C        6.896      46.319     -55.917
  O        6.701      46.409     -54.512
  P        5.397      45.719     -53.882
  C        6.681      43.565     -53.227
  O        5.615      44.131     -53.976
  C        6.391      42.108     -52.869
  O        6.207      41.347     -54.092
  C        7.499      41.417     -52.068
  O        6.867      40.476     -51.192
  C        8.271      40.662     -53.132
  O        9.037      39.592     -52.588
  C        7.127      40.236     -54.048
  N        9.652      36.828     -56.901
  C        9.339      36.843     -55.589
  N        8.662      37.786     -54.901
  C        8.301      38.796     -55.711
  C        8.580      38.934     -57.060
  C        9.290      37.884     -57.667
  N        9.602      37.860     -59.006
  N        8.068      40.121     -57.541
  C        7.491      40.689     -56.503
  N        7.585      39.914     -55.382
  O        4.278      46.010     -54.989
  O        4.987      46.235     -52.546
  H        8.477      39.108     -51.952
  H        3.620      46.642     -54.639
  H        9.668      35.980     -55.016
  H        6.999      41.651     -56.510
  H        6.587      39.365     -53.657
  H        8.959      41.344     -53.645
  H        8.131      42.104     -51.495
  H        5.441      42.071     -52.321
  H        6.801      44.135     -52.302
  H        9.988      37.015     -59.391
  H        9.174      38.546     -59.618
  H        7.609      43.635     -53.802
  P        7.477      40.334     -49.716
  C        6.053      42.290     -48.784
  O        7.346      41.770     -49.024
  O        9.049      40.178     -49.979
  O        6.931      39.181     -48.940
  H        9.458      39.669     -49.256
  H        6.077      42.887     -47.868
  H        5.308      41.496     -48.670
  H        5.765      42.934     -49.620
  H        7.801      46.823     -56.184
  H        6.071      46.776     -56.422
  H        6.963      45.290     -56.203

 3  4  5  6  7  8  9  10  11  12  22  25  29  30  31  32 0
 6-311+G(2d,p)
 ****
 33  36  37 0
 6-311+G(2d,p)
 ****
 1  2  13  14  15  16  17  18  19  20  21  23  24  26 0
 3-21G
 ****
 27  28  34  35  38  39  40  41  42  43  44  45  46  47  48 0
 3-21G
 ****


