%nproc=1
%NoSave
%Mem=1900MB
#P OB98/GEN NMR

erre ene a

0 1
  C      182.908     -58.729    -245.107
  O      183.409     -59.773    -245.914
  H      183.723     -58.337    -244.495
  H      182.129     -59.115    -244.443
  H      182.506     -57.915    -245.715
  P      182.502     -60.331    -247.111
  C      183.028     -62.801    -246.588
  O      183.129     -61.747    -247.534
  C      184.212     -63.763    -246.714
  O      185.385     -63.146    -246.109
  C      183.995     -65.116    -246.017
  O      184.730     -66.100    -246.755
  C      184.643     -64.874    -244.668
  O      184.920     -66.088    -244.002
  C      185.857     -64.037    -245.079
  N      186.446     -63.315    -243.953
  C      187.783     -62.963    -244.071
  O      188.477     -63.257    -245.046
  N      188.327     -62.293    -243.009
  C      187.688     -62.008    -241.837
  O      188.234     -61.433    -240.903
  C      186.285     -62.442    -241.751
  C      185.733     -63.064    -242.797
  O      182.273     -59.387    -248.244
  O      181.131     -60.756    -246.402
  H      185.445     -66.681    -244.583
  H      180.385     -60.654    -247.026
  H      189.295     -62.024    -243.083
  H      185.752     -62.238    -240.831
  H      184.702     -63.396    -242.764
  H      186.638     -64.674    -245.518
  H      183.980     -64.291    -244.020
  H      182.943     -65.398    -245.943
  H      184.441     -63.902    -247.778
  H      182.092     -63.337    -246.779
  H      182.997     -62.382    -245.576
  P      184.075     -67.495    -247.207
  C      186.220     -68.844    -246.745
  O      185.241     -68.474    -247.713
  O      182.936     -67.353    -248.166
  O      183.584     -68.174    -245.843
  H      182.822     -68.758    -246.021
  H      186.940     -69.494    -247.197
  H      185.744     -69.350    -245.931
  H      186.711     -67.966    -246.381

 6  7  8  9  10  11  12  13  14  15  16  26  31  32  33  34  35 0
 6-311+G(2d,p)
 ****
 36  37 0
 6-311+G(2d,p)
 ****
 1  2  3  4  5  17  18  19  20  21  22  23  24  25 0
 3-21G
 ****
 27  28  29  30  38  39  40  41  42  43  44  45 0
 3-21G
 ****


