%nproc=1
%NoSave
%Mem=1900MB
#P OB98/GEN NMR

erre ene a

0 1
  C     -226.208    -370.315      51.416
  O     -224.802    -370.304      51.289
  H     -226.636    -370.749      50.510
  H     -226.588    -369.297      51.531
  H     -226.509    -370.925      52.275
  P     -223.925    -369.655      52.464
  C     -223.316    -367.264      53.227
  O     -223.920    -368.068      52.220
  C     -223.406    -365.781      52.845
  O     -222.464    -365.542      51.771
  C     -224.807    -365.385      52.349
  O     -225.340    -364.254      53.040
  C     -224.628    -365.283      50.838
  O     -225.539    -364.414      50.201
  C     -223.153    -364.893      50.689
  N     -222.572    -365.271      49.402
  C     -222.008    -364.257      48.630
  O     -221.950    -363.075      48.952
  N     -221.481    -364.656      47.424
  C     -221.481    -365.925      46.926
  O     -220.991    -366.220      45.841
  C     -222.117    -366.945      47.775
  C     -222.627    -366.580      48.951
  O     -222.574    -370.257      52.670
  O     -224.842    -369.813      53.769
  H     -226.426    -364.828      50.266
  H     -224.489    -370.533      54.331
  H     -221.056    -363.937      46.866
  H     -222.144    -367.962      47.402
  H     -223.104    -367.305      49.603
  H     -223.030    -363.813      50.800
  H     -224.779    -366.282      50.406
  H     -225.534    -366.175      52.570
  H     -223.092    -365.176      53.703
  H     -222.267    -367.570      53.317
  H     -223.823    -367.432      54.184
  P     -226.710    -364.240      53.860
  C     -229.254    -363.948      53.249
  O     -227.926    -364.231      52.820
  O     -226.784    -363.267      54.989
  O     -226.788    -365.726      54.491
  H     -227.258    -365.633      55.345
  H     -229.917    -363.991      52.410
  H     -229.288    -362.970      53.681
  H     -229.555    -364.671      53.978

 6  7  8  9  10  11  12  13  14  15  16  26  31  32  33  34  35 0
 6-311+G(2d,p)
 ****
 36  37 0
 6-311+G(2d,p)
 ****
 1  2  3  4  5  17  18  19  20  21  22  23  24  25 0
 3-21G
 ****
 27  28  29  30  38  39  40  41  42  43  44  45 0
 3-21G
 ****


