%nproc=1
%NoSave
%Mem=1900MB
#P OB98/GEN NMR

erre ene a

0 1
  C       69.164     -26.034     108.143
  O       69.940     -27.038     108.766
  H       69.510     -25.044     108.451
  H       69.276     -26.124     107.059
  H       68.106     -26.157     108.400
  P       69.885     -27.094     110.370
  C       72.237     -26.023     110.630
  O       70.845     -25.916     110.891
  C       72.882     -24.639     110.641
  O       72.587     -23.943     109.412
  C       72.396     -23.720     111.759
  O       73.036     -24.010     112.994
  C       72.828     -22.365     111.217
  O       74.236     -22.173     111.448
  C       72.559     -22.523     109.710
  N       70.236     -18.823     107.042
  C       71.540     -19.139     107.201
  N       72.081     -20.150     107.911
  C       71.118     -20.895     108.480
  C       69.747     -20.714     108.391
  C       69.305     -19.616     107.633
  N       67.967     -19.263     107.534
  N       69.077     -21.673     109.126
  C       70.029     -22.407     109.664
  N       71.277     -21.980     109.298
  O       70.706     -28.431     110.705
  O       68.514     -27.122     110.959
  H       74.355     -22.107     112.414
  H       70.079     -29.165     110.845
  H       72.246     -18.487     106.694
  H       69.862     -23.249     110.325
  H       73.336     -22.048     109.101
  H       72.304     -21.526     111.688
  H       71.305     -23.738     111.852
  H       73.970     -24.775     110.692
  H       72.391     -26.485     109.648
  H       67.819     -18.268     107.391
  H       67.361     -19.723     108.204
  H       72.689     -26.659     111.396
  P       72.125     -24.026     114.316
  C       73.003     -21.700     115.036
  O       71.864     -22.490     114.711
  O       73.144     -24.539     115.442
  O       70.914     -24.892     114.249
  H       72.779     -25.332     115.879
  H       72.690     -20.706     115.278
  H       73.668     -21.671     114.198
  H       73.507     -22.130     115.876

 6  7  8  9  10  11  12  13  14  15  25  28  32  33  34  35 0
 6-311+G(2d,p)
 ****
 36  39  40 0
 6-311+G(2d,p)
 ****
 1  2  3  4  5  16  17  18  19  20  21  22  23  24 0
 3-21G
 ****
 26  27  29  30  31  37  38  41  42  43  44  45  46  47  48 0
 3-21G
 ****


