%nproc=1
%NoSave
%Mem=1900MB
#P OB98/GEN NMR

erre ene a

0 1
  C      272.546    -251.772     151.248
  O      273.294    -250.827     150.475
  P      273.242    -249.282     150.906
  C      275.777    -248.773     150.637
  O      274.458    -248.513     150.181
  C      276.789    -248.537     149.502
  O      276.606    -249.483     148.422
  C      276.664    -247.160     148.856
  O      277.356    -246.169     149.609
  C      277.366    -247.388     147.530
  O      278.797    -247.332     147.717
  C      276.920    -248.806     147.173
  N      275.183    -247.503     142.595
  C      276.432    -247.304     143.171
  N      277.354    -246.669     142.406
  N      276.758    -247.695     144.384
  C      275.729    -248.340     145.024
  C      274.441    -248.584     144.563
  C      274.108    -248.127     143.234
  O      273.024    -248.267     142.677
  N      273.716    -249.248     145.502
  C      274.531    -249.397     146.522
  N      275.774    -248.848     146.290
  O      273.718    -249.332     152.441
  O      271.901    -248.641     150.770
  H      278.998    -246.419     147.992
  H      273.328    -248.583     152.932
  H      274.994    -247.174     141.666
  H      274.283    -249.909     147.445
  H      277.727    -249.381     146.673
  H      277.108    -246.622     146.777
  H      277.190    -246.391     141.445
  H      275.607    -246.881     148.691
  H      278.285    -246.554     142.791
  H      277.811    -248.648     149.909
  H      275.874    -249.809     150.994
  H      275.991    -248.130     151.498
  P      276.488    -245.123     150.479
  C      277.988    -244.300     152.441
  O      277.522    -244.092     151.107
  O      276.030    -246.026     151.738
  O      275.316    -244.532     149.763
  H      275.140    -245.722     152.041
  H      278.808    -243.602     152.633
  H      278.375    -245.323     152.560
  H      277.183    -244.130     153.154
  H      272.680    -252.752     150.840
  H      271.508    -251.513     151.221
  H      272.891    -251.757     152.261

 3  4  5  6  7  8  9  10  11  12  23  26  30  31 0
 6-311+G(2d,p)
 ****
 33  35  36  37  38 0
 6-311+G(2d,p)
 ****
 1  2  13  14  15  16  17  18  19  20  21  22  24  25 0
 3-21G
 ****
 27  28  29  32  34  39  40  41  42  43  44  45  46  47  48  49 0
 3-21G
 ****


