%nproc=1
%NoSave
%Mem=1900MB
#P OB98/GEN NMR

erre ene a

0 1
  C     -101.309      -3.053     -96.124
  O     -102.611      -3.493     -96.453
  H     -101.379      -2.062     -95.670
  H     -100.701      -2.984     -97.029
  H     -100.843      -3.737     -95.412
  P     -102.745      -4.975     -97.053
  C     -104.053      -3.936     -99.037
  O     -104.012      -4.950     -98.043
  C     -105.329      -3.106     -98.909
  O     -105.341      -2.456     -97.603
  C     -105.476      -2.005     -99.971
  O     -106.868      -1.879    -100.289
  C     -105.047      -0.754     -99.222
  O     -105.549       0.440     -99.816
  C     -105.613      -1.061     -97.837
  N     -106.410       3.012     -94.994
  C     -107.230       2.384     -95.911
  N     -108.454       2.922     -96.102
  N     -106.882       1.319     -96.582
  C     -105.643       0.869     -96.266
  C     -104.734       1.401     -95.385
  C     -105.122       2.597     -94.667
  O     -104.433       3.209     -93.858
  N     -103.574       0.667     -95.369
  C     -103.784      -0.306     -96.237
  N     -105.025      -0.226     -96.808
  O     -103.266      -5.816     -95.796
  O     -101.495      -5.547     -97.631
  H     -105.045       1.195     -99.448
  H     -102.513      -6.219     -95.324
  H     -106.722       3.838     -94.514
  H     -103.077      -1.085     -96.490
  H     -106.698      -0.910     -97.786
  H     -103.952      -0.687     -99.193
  H     -108.808       3.712     -95.587
  H     -104.901      -2.179    -100.885
  H     -109.086       2.450     -96.738
  H     -106.190      -3.785     -98.930
  H     -104.029      -4.406    -100.026
  H     -103.176      -3.289     -98.928
  P     -107.377      -2.471    -101.687
  C     -108.466      -0.440    -102.892
  O     -108.663      -1.631    -102.145
  O     -108.009      -3.882    -101.267
  O     -106.305      -2.631    -102.713
  H     -107.953      -4.505    -102.014
  H     -109.415      -0.000    -103.119
  H     -107.953      -0.671    -103.802
  H     -107.882       0.248    -102.318

 6  7  8  9  10  11  12  13  14  15  26  29  33  34 0
 6-311+G(2d,p)
 ****
 36  38  39  40  41 0
 6-311+G(2d,p)
 ****
 1  2  3  4  5  16  17  18  19  20  21  22  23  24  25 0
 3-21G
 ****
 27  28  30  31  32  35  37  42  43  44  45  46  47 0
 3-21G
 ****
 48  49 0
 3-21G
 ****


