%nproc=1
%NoSave
%Mem=1900MB
#P OB98/GEN NMR

erre ene a

0 1
  C      290.652     131.905    -898.070
  O      290.297     130.534    -898.300
  P      291.435     129.486    -898.710
  C      290.894     127.536    -897.060
  O      291.813     128.544    -897.450
  C      291.142     127.089    -895.610
  O      292.436     126.400    -895.510
  C      291.164     128.242    -894.580
  O      290.662     127.700    -893.350
  C      292.658     128.515    -894.440
  O      292.992     129.212    -893.260
  C      293.223     127.100    -894.510
  N      294.664     127.020    -894.830
  C      295.554     127.356    -893.850
  O      295.240     127.813    -892.740
  N      296.884     127.255    -894.170
  C      297.384     126.866    -895.400
  O      298.565     126.806    -895.640
  C      296.361     126.517    -896.410
  C      295.076     126.635    -896.080
  O      292.744     130.436    -898.800
  O      291.226     128.768    -900.000
  H      293.967     129.208    -893.180
  H      293.242     130.228    -899.610
  H      297.548     127.513    -893.470
  H      296.721     126.204    -897.390
  H      294.314     126.361    -896.830
  H      293.031     126.581    -893.570
  H      292.989     129.143    -895.300
  H      290.594     129.103    -894.900
  H      290.376     126.340    -895.340
  H      291.014     126.675    -897.720
  H      289.872     127.925    -897.170
  P      289.088     127.891    -893.040
  C      288.409     125.409    -892.600
  O      288.354     126.521    -893.440
  O      288.675     128.896    -894.230
  O      288.786     128.437    -891.670
  H      289.048     128.629    -895.090
  H      288.290     125.694    -891.530
  H      289.368     124.896    -892.720
  H      287.586     124.723    -892.860
  H      289.776     132.461    -897.807
  H      291.082     132.316    -898.959
  H      291.362     131.960    -897.272

 3  4  5  6  7  8  9  10  11  12  13  23  28  29  30  31  32 0
 6-311+G(2d,p)
 ****
 33  34 0
 6-311+G(2d,p)
 ****
 1  2  14  15  16  17  18  19  20  21  22  24  25  26 0
 3-21G
 ****
 27  35  36  37  38  39  40  41  42  43  44  45 0
 3-21G
 ****


