%nproc=1
%NoSave
%Mem=1900MB
#P OB98/GEN NMR

erre ene a

0 1
  C      -97.588      77.371      10.230
  O      -97.389      75.984      10.043
  H      -98.002      77.791       9.310
  H      -96.638      77.866      10.449
  H      -98.295      77.541      11.046
  P      -96.750      75.179      11.275
  C      -94.534      75.398      12.573
  O      -95.265      75.778      11.413
  C      -93.131      74.927      12.190
  O      -93.238      73.631      11.549
  C      -92.417      75.870      11.218
  O      -91.033      75.933      11.556
  C      -92.583      75.185       9.872
  O      -91.558      75.546       8.949
  C      -92.581      73.711      10.272
  N      -91.973      70.126       6.695
  C      -91.121      70.654       7.598
  N      -91.371      71.599       8.531
  C      -92.666      71.962       8.502
  C      -93.649      71.515       7.638
  C      -93.258      70.553       6.690
  N      -94.112      70.029       5.749
  N      -94.844      72.158       7.892
  C      -94.590      72.969       8.902
  N      -93.281      72.897       9.293
  O      -96.834      73.692      11.191
  O      -97.505      75.840      12.521
  H      -90.762      75.013       9.149
  H      -97.551      76.810      12.437
  H      -90.103      70.275       7.566
  H      -95.308      73.632       9.372
  H      -91.569      73.302      10.372
  H      -93.547      75.467       9.432
  H      -92.845      76.873      11.218
  H      -92.546      74.782      13.105
  H      -95.058      74.594      13.101
  H      -93.753      69.332       5.116
  H      -95.079      70.321       5.741
  H      -94.476      76.268      13.234
  P      -90.537      77.107      12.527
  C      -90.177      79.660      12.425
  O      -90.608      78.497      11.727
  O      -89.264      76.853      13.261
  O      -91.764      77.246      13.553
  H      -91.411      77.436      14.444
  H      -90.273      80.514      11.788
  H      -89.153      79.544      12.714
  H      -90.781      79.796      13.298

 6  7  8  9  10  11  12  13  14  15  25  28  32  33  34  35 0
 6-311+G(2d,p)
 ****
 36  39  40 0
 6-311+G(2d,p)
 ****
 1  2  3  4  5  16  17  18  19  20  21  22  23  24 0
 3-21G
 ****
 26  27  29  30  31  37  38  41  42  43  44  45  46  47 0
 3-21G
 ****
 48 0
 3-21G
 ****


