%nproc=1
%NoSave
%Mem=1900MB
#P OB98/GEN NMR

erre ene a

0 1
  C      -17.185      15.863     150.128
  O      -17.330      16.706     151.255
  H      -17.791      16.263     149.312
  H      -17.533      14.855     150.365
  H      -16.139      15.835     149.812
  P      -16.492      16.301     152.562
  C      -18.761      15.556     153.562
  O      -17.409      15.208     153.295
  C      -19.145      15.154     154.984
  O      -19.306      13.728     155.081
  C      -18.114      15.527     156.042
  O      -18.238      16.891     156.410
  C      -18.521      14.597     157.174
  O      -19.655      15.148     157.872
  C      -18.938      13.319     156.425
  N      -16.342       9.708     158.987
  C      -17.181      10.678     159.407
  N      -17.801      11.628     158.676
  C      -17.482      11.515     157.377
  C      -16.640      10.575     156.801
  C      -16.062       9.631     157.666
  N      -15.214       8.635     157.231
  N      -16.550      10.770     155.439
  C      -17.365      11.774     155.190
  N      -17.925      12.284     156.335
  O      -16.015      17.435     153.402
  O      -15.336      15.399     151.916
  H      -20.453      14.918     157.363
  H      -15.693      14.852     151.195
  H      -17.384      10.693     160.474
  H      -17.597      12.159     154.204
  H      -19.820      12.852     156.879
  H      -17.726      14.468     157.911
  H      -17.099      15.274     155.718
  H      -20.118      15.608     155.209
  H      -19.430      15.070     152.844
  H      -14.713       8.113     157.932
  H      -14.910       8.658     156.269
  H      -18.851      16.640     153.439
  P      -16.944      17.753     156.797
  C      -17.686      17.817     159.257
  O      -16.649      17.465     158.349
  O      -17.017      19.197     156.438
  O      -15.734      17.018     156.056
  H      -15.096      17.673     155.714
  H      -17.381      17.582     160.255
  H      -18.572      17.268     159.016
  H      -17.885      18.866     159.182

 6  7  8  9  10  11  12  13  14  15  25  28  32  33  34  35 0
 6-311+G(2d,p)
 ****
 36  39  40 0
 6-311+G(2d,p)
 ****
 1  2  3  4  5  16  17  18  19  20  21  22  23  24 0
 3-21G
 ****
 26  27  29  30  31  37  38  41  42  43  44  45  46  47 0
 3-21G
 ****
 48 0
 3-21G
 ****


