%nproc=1
%NoSave
%Mem=1900MB
#P OB98/GEN NMR

erre ene a

0 1
  C      338.051     247.853    -133.287
  O      338.010     246.989    -132.172
  H      337.661     247.320    -134.158
  H      339.087     248.140    -133.488
  H      337.447     248.748    -133.123
  P      338.084     247.623    -130.706
  C      335.814     246.641    -129.969
  O      336.583     247.820    -130.169
  C      335.518     246.405    -128.488
  O      334.950     247.599    -127.911
  C      334.502     245.279    -128.266
  O      335.068     243.982    -128.192
  C      333.876     245.679    -126.932
  O      334.622     245.143    -125.824
  C      333.964     247.210    -126.944
  N      330.110     250.137    -125.293
  C      331.151     249.588    -124.571
  N      331.136     249.821    -123.240
  N      332.100     248.865    -125.110
  C      331.925     248.639    -126.431
  C      330.923     249.115    -127.250
  C      329.917     249.971    -126.660
  O      328.988     250.496    -127.258
  N      331.050     248.637    -128.532
  C      332.075     247.810    -128.463
  N      332.687     247.839    -127.231
  O      338.553     249.133    -130.975
  O      339.020     246.941    -129.755
  H      335.558     245.394    -125.942
  H      339.087     249.448    -130.223
  H      329.425     250.708    -124.829
  H      332.445     247.205    -129.284
  H      334.298     247.599    -125.974
  H      332.859     245.289    -126.845
  H      330.387     250.295    -122.764
  H      333.720     245.307    -129.029
  H      331.770     249.280    -122.648
  H      336.457     246.206    -127.960
  H      336.403     245.814    -130.369
  H      334.885     246.691    -130.544
  P      334.510     242.792    -129.102
  C      336.016     243.132    -131.226
  O      334.737     243.177    -130.633
  O      332.924     242.911    -128.921
  O      335.014     241.428    -128.753
  H      332.606     242.267    -128.262
  H      335.944     243.427    -132.252
  H      336.402     242.136    -131.167
  H      336.673     243.800    -130.709

 6  7  8  9  10  11  12  13  14  15  26  29  33  34 0
 6-311+G(2d,p)
 ****
 36  38  39  40  41 0
 6-311+G(2d,p)
 ****
 1  2  3  4  5  16  17  18  19  20  21  22  23  24  25 0
 3-21G
 ****
 27  28  30  31  32  35  37  42  43  44  45  46  47 0
 3-21G
 ****
 48  49 0
 3-21G
 ****


