%nproc=1
%NoSave
%Mem=1900MB
#P OB98/GEN NMR

erre ene a

0 1
  C     -422.423     650.146      94.066
  O     -421.143     650.124      94.691
  P     -420.831     651.245      95.798
  C     -418.926     649.600      96.421
  O     -419.334     650.947      96.299
  C     -417.467     649.433      96.018
  O     -416.621     650.312      96.787
  C     -416.906     648.034      96.235
  O     -417.225     647.146      95.183
  C     -415.405     648.322      96.220
  O     -414.940     648.471      94.873
  C     -415.338     649.671      96.952
  N     -411.750     650.361     100.535
  C     -411.716     650.513      99.191
  N     -412.708     650.294      98.308
  C     -413.818     649.847      98.923
  C     -413.975     649.617     100.285
  C     -412.889     649.904     101.111
  N     -412.930     649.768     102.485
  N     -415.253     649.157     100.539
  C     -415.852     649.125      99.369
  N     -415.034     649.543      98.363
  O     -421.731     650.791      97.036
  O     -421.122     652.647      95.376
  H     -414.121     649.009      94.913
  H     -421.925     651.558      97.618
  H     -410.780     650.849      98.778
  H     -416.887     648.810      99.213
  H     -414.576     650.347      96.511
  H     -414.812     647.531      96.684
  H     -417.191     647.636      97.224
  H     -417.372     649.717      94.949
  H     -419.559     648.971      95.790
  H     -412.165     650.168     103.022
  H     -413.829     649.617     102.930
  H     -419.071     649.281      97.473
  P     -417.619     645.634      95.615
  C     -418.719     645.502      93.252
  O     -417.922     644.883      94.234
  O     -419.067     645.812      96.274
  O     -416.639     644.995      96.526
  H     -419.245     645.091      96.916
  H     -418.568     645.018      92.293
  H     -418.461     646.561      93.152
  H     -419.785     645.424      93.531
  H     -422.487     649.347      93.357
  H     -422.559     651.081      93.564
  H     -423.184     650.026      94.808

 3  4  5  6  7  8  9  10  11  12  22  25  29  30  31  32 0
 6-311+G(2d,p)
 ****
 33  36  37 0
 6-311+G(2d,p)
 ****
 1  2  13  14  15  16  17  18  19  20  21  23  24  26 0
 3-21G
 ****
 27  28  34  35  38  39  40  41  42  43  44  45  46  47  48 0
 3-21G
 ****


