%nproc=1
%NoSave
%Mem=1900MB
#P OB98/GEN NMR

erre ene a

0 1
  C      816.998     372.098    -212.504
  O      816.146     372.058    -211.366
  P      815.237     370.770    -211.055
  C      813.182     372.149    -211.756
  O      813.926     370.958    -211.958
  C      812.073     372.274    -212.812
  O      812.704     372.346    -214.117
  C      811.107     371.086    -212.901
  O      810.037     371.139    -211.974
  C      810.568     371.283    -214.319
  O      809.573     372.318    -214.318
  C      811.819     371.729    -215.085
  N      811.239     367.688    -218.174
  C      810.361     368.627    -217.731
  N      810.596     369.653    -216.885
  C      811.891     369.702    -216.541
  C      812.891     368.837    -216.909
  C      812.521     367.772    -217.775
  N      813.433     366.836    -218.244
  N      814.097     369.182    -216.334
  C      813.818     370.278    -215.633
  N      812.504     370.629    -215.733
  O      814.991     370.529    -209.607
  O      816.011     369.559    -211.767
  H      809.990     373.122    -213.973
  H      815.684     368.714    -211.415
  H      809.335     368.525    -218.077
  H      814.536     370.823    -215.054
  H      811.594     372.486    -215.839
  H      810.081     370.364    -214.705
  H      811.640     370.129    -212.845
  H      811.536     373.213    -212.643
  H      813.863     373.010    -211.847
  H      813.087     366.202    -218.956
  H      814.406     366.992    -218.084
  H      812.761     372.154    -210.749
  P      809.348     369.740    -211.560
  C      807.586     369.955    -213.499
  O      808.624     369.211    -212.896
  O      808.476     369.805    -210.363
  O      810.602     368.760    -211.409
  H      811.092     368.565    -212.233
  H      807.336     369.507    -214.464
  H      807.887     370.994    -213.646
  H      806.686     369.904    -212.858
  H      817.514     373.035    -212.531
  H      816.412     371.988    -213.392
  H      817.709     371.301    -212.445

 3  4  5  6  7  8  9  10  11  12  22  25  29  30  31  32 0
 6-311+G(2d,p)
 ****
 33  36  37 0
 6-311+G(2d,p)
 ****
 1  2  13  14  15  16  17  18  19  20  21  23  24  26 0
 3-21G
 ****
 27  28  34  35  38  39  40  41  42  43  44  45  46  47  48 0
 3-21G
 ****


