%nproc=1
%NoSave
%Mem=1900MB
#P OB98/GEN NMR

erre ene a

0 1
  C      193.558     211.419    -431.225
  O      193.665     210.023    -431.448
  P      193.843     209.075    -430.170
  C      191.311     209.070    -429.535
  O      192.640     209.405    -429.161
  C      190.651     208.250    -428.427
  O      191.208     206.915    -428.392
  C      190.873     208.825    -427.032
  O      190.003     209.912    -426.775
  C      190.599     207.610    -426.151
  O      189.191     207.448    -425.924
  C      191.146     206.457    -427.023
  N      192.441     205.973    -426.560
  C      192.406     204.968    -425.592
  O      191.354     204.523    -425.132
  N      193.617     204.522    -425.148
  C      194.840     205.008    -425.517
  O      195.892     204.610    -425.039
  C      194.816     206.088    -426.519
  C      193.641     206.516    -426.980
  O      195.134     209.666    -429.430
  O      194.002     207.623    -430.484
  H      189.071     206.572    -425.511
  H      195.648     208.940    -429.025
  H      193.617     203.781    -424.465
  H      195.767     206.500    -426.837
  H      193.601     207.320    -427.709
  H      190.444     205.617    -427.020
  H      191.075     207.693    -425.174
  H      191.924     209.124    -426.914
  H      189.578     208.169    -428.645
  H      191.332     208.489    -430.465
  H      190.747     209.991    -429.723
  P      190.359     210.843    -425.513
  C      192.092     212.432    -426.660
  O      191.856     211.351    -425.782
  O      190.489     209.742    -424.362
  O      189.332     211.900    -425.257
  H      190.831     208.903    -424.695
  H      191.293     213.174    -426.600
  H      192.163     212.056    -427.683
  H      193.042     212.908    -426.389
  H      193.444     211.922    -432.162
  H      194.442     211.771    -430.736
  H      192.706     211.617    -430.608

 3  4  5  6  7  8  9  10  11  12  13  23  28  29  30  31  32 0
 6-311+G(2d,p)
 ****
 33  34 0
 6-311+G(2d,p)
 ****
 1  2  14  15  16  17  18  19  20  21  22  24  25  26 0
 3-21G
 ****
 27  35  36  37  38  39  40  41  42  43  44  45 0
 3-21G
 ****


