%nproc=1
%NoSave
%Mem=1900MB
#P OB98/GEN NMR

erre ene a

0 1
  C      239.880     -15.493     194.403
  O      238.982     -14.680     193.674
  H      240.420     -14.881     195.130
  H      239.309     -16.254     194.941
  H      240.588     -15.989     193.734
  P      239.611     -13.690     192.580
  C      238.529     -12.608     190.483
  O      238.370     -12.983     191.843
  C      237.437     -13.238     189.622
  O      237.604     -14.685     189.650
  C      236.006     -12.921     190.084
  O      235.188     -12.731     188.925
  C      235.578     -14.196     190.788
  O      234.165     -14.371     190.797
  C      236.321     -15.250     189.974
  N      234.211     -19.798     190.822
  C      234.032     -18.890     189.840
  N      234.679     -17.720     189.658
  C      235.639     -17.560     190.585
  C      235.944     -18.400     191.642
  C      235.164     -19.564     191.756
  N      235.290     -20.462     192.791
  N      236.958     -17.859     192.410
  C      237.239     -16.704     191.841
  N      236.466     -16.478     190.737
  O      240.171     -14.710     191.477
  O      240.673     -12.769     193.079
  H      233.940     -15.090     191.420
  H      241.079     -14.976     191.710
  H      233.263     -19.126     189.109
  H      237.961     -15.986     192.202
  H      235.807     -15.502     189.038
  H      235.930     -14.178     191.825
  H      235.937     -12.041     190.734
  H      237.586     -12.920     188.583
  H      239.506     -12.957     190.129
  H      234.617     -21.210     192.848
  H      235.919     -20.246     193.551
  H      238.496     -11.517     190.402
  P      234.943     -11.224     188.433
  C      235.402     -10.015     186.173
  O      234.971     -11.201     186.832
  O      236.302     -10.480     188.838
  O      233.752     -10.571     189.056
  H      236.122      -9.554     189.075
  H      235.363     -10.161     185.114
  H      236.406      -9.790     186.465
  H      234.761      -9.203     186.445

 6  7  8  9  10  11  12  13  14  15  25  28  32  33  34  35 0
 6-311+G(2d,p)
 ****
 36  39  40 0
 6-311+G(2d,p)
 ****
 1  2  3  4  5  16  17  18  19  20  21  22  23  24 0
 3-21G
 ****
 26  27  29  30  31  37  38  41  42  43  44  45  46  47 0
 3-21G
 ****
 48 0
 3-21G
 ****


