%nproc=1
%NoSave
%Mem=1900MB
#P OB98/GEN NMR

erre ene a

0 1
  C       38.299    -155.006     213.566
  O       37.787    -153.803     214.104
  H       39.377    -154.894     213.420
  H       37.837    -155.233     212.601
  H       38.127    -155.833     214.264
  P       36.192    -153.624     214.169
  C       34.362    -153.335     212.367
  O       35.747    -153.194     212.685
  C       34.153    -153.417     210.852
  O       34.668    -154.664     210.346
  C       32.691    -153.391     210.433
  O       32.052    -152.148     210.639
  C       32.740    -153.991     209.033
  O       33.019    -153.035     208.015
  C       33.920    -154.984     209.155
  N       33.471    -156.372     209.151
  C       32.772    -156.780     208.019
  O       32.512    -156.033     207.074
  N       32.331    -158.075     208.023
  C       32.478    -158.967     209.049
  O       32.026    -160.103     209.006
  C       33.204    -158.470     210.231
  C       33.663    -157.216     210.228
  O       35.683    -152.709     215.242
  O       35.646    -155.124     214.291
  H       32.285    -152.390     208.019
  H       34.710    -155.137     214.604
  H       31.831    -158.392     207.207
  H       33.337    -159.149     211.063
  H       34.198    -156.826     211.091
  H       34.612    -154.855     208.312
  H       31.794    -154.469     208.771
  H       32.148    -154.115     211.057
  H       34.714    -152.603     210.381
  H       33.842    -152.453     212.754
  H       33.961    -154.229     212.859
  P       30.467    -151.960     210.594
  C       28.570    -152.202     208.835
  O       29.968    -152.245     209.090
  O       29.908    -150.779     211.321
  O       29.968    -153.284     211.374
  H       29.160    -153.047     211.869
  H       28.390    -152.409     207.801
  H       28.193    -151.230     209.075
  H       28.075    -152.935     209.437

 6  7  8  9  10  11  12  13  14  15  16  26  31  32  33  34  35 0
 6-311+G(2d,p)
 ****
 36  37 0
 6-311+G(2d,p)
 ****
 1  2  3  4  5  17  18  19  20  21  22  23  24  25 0
 3-21G
 ****
 27  28  29  30  38  39  40  41  42  43  44  45 0
 3-21G
 ****


