%nproc=1
%NoSave
%Mem=1900MB
#P OB98/GEN NMR

erre ene a

0 1
  C     -303.379      33.041    -162.917
  O     -303.830      32.590    -161.657
  H     -302.994      32.186    -163.480
  H     -302.573      33.771    -162.794
  H     -304.205      33.488    -163.475
  P     -304.343      33.708    -160.627
  C     -301.872      34.505    -160.462
  O     -303.240      34.872    -160.618
  C     -301.104      35.658    -159.826
  O     -301.298      36.865    -160.602
  C     -301.563      36.008    -158.417
  O     -301.046      35.124    -157.436
  C     -301.007      37.414    -158.274
  O     -299.635      37.405    -157.859
  C     -301.156      37.979    -159.699
  N     -302.276      38.912    -159.800
  C     -301.931      40.260    -159.890
  O     -300.769      40.664    -159.894
  N     -302.977      41.139    -159.942
  C     -304.298      40.816    -159.861
  O     -305.185      41.659    -159.857
  C     -304.604      39.378    -159.747
  C     -303.591      38.505    -159.718
  O     -304.165      33.001    -159.203
  O     -305.742      34.174    -160.850
  H     -305.038      32.747    -158.851
  H     -299.375      38.343    -157.771
  H     -302.749      42.120    -160.012
  H     -305.643      39.088    -159.681
  H     -303.789      37.444    -159.627
  H     -300.241      38.510    -159.997
  H     -301.566      37.980    -157.533
  H     -302.658      36.049    -158.373
  H     -300.035      35.410    -159.832
  H     -301.437      34.285    -161.444
  H     -301.815      33.604    -159.845
  P     -301.759      35.103    -155.998
  C     -300.280      37.040    -155.010
  O     -301.564      36.576    -155.393
  O     -300.738      34.184    -155.176
  O     -303.165      34.606    -156.048
  H     -299.836      34.234    -155.536
  H     -300.359      38.038    -154.633
  H     -299.629      37.030    -155.859
  H     -299.883      36.402    -154.249

 6  7  8  9  10  11  12  13  14  15  16  27  31  32  33  34  35 0
 6-311+G(2d,p)
 ****
 36  37 0
 6-311+G(2d,p)
 ****
 1  2  3  4  5  17  18  19  20  21  22  23  24  25 0
 3-21G
 ****
 26  28  29  30  38  39  40  41  42  43  44  45 0
 3-21G
 ****


