%nproc=1
%NoSave
%Mem=1900MB
#P OB98/GEN NMR

erre ene a

0 1
  C      375.627     113.782       7.929
  O      375.106     114.998       8.429
  H      375.506     113.751       6.844
  H      376.692     113.731       8.167
  H      375.122     112.926       8.387
  P      373.510     115.156       8.464
  C      373.290     113.832      10.687
  O      372.951     113.907       9.309
  C      372.346     112.880      11.417
  O      371.026     113.496      11.482
  C      372.189     111.505      10.748
  O      372.111     110.509      11.771
  C      370.844     111.606      10.054
  O      370.228     110.339       9.859
  C      370.082     112.518      11.011
  N      365.139     111.995       9.936
  C      365.937     111.376      10.834
  N      367.238     111.616      11.092
  C      367.688     112.652      10.363
  C      366.990     113.383       9.416
  C      365.655     113.005       9.197
  N      364.853     113.580       8.238
  N      367.816     114.330       8.839
  C      368.991     114.155       9.407
  N      368.962     113.150      10.336
  O      373.098     114.801       6.955
  O      373.003     116.493       8.881
  H      369.303     110.478       9.571
  H      373.132     115.608       6.410
  H      365.474     110.580      11.409
  H      369.894     114.700       9.169
  H      369.682     111.977      11.878
  H      370.972     112.083       9.074
  H      373.000     111.258      10.053
  H      372.696     112.768      12.450
  H      373.200     114.828      11.129
  H      363.944     113.173       8.081
  H      365.256     114.257       7.607
  H      374.324     113.492      10.787
  P      372.814     109.097      11.481
  C      374.733     109.677      13.147
  O      374.369     109.215      11.849
  O      372.817     109.010       9.884
  O      372.108     107.932      12.094
  H      372.725     108.081       9.597
  H      375.799     109.698      13.232
  H      374.329     109.018      13.887
  H      374.344     110.662      13.297

 6  7  8  9  10  11  12  13  14  15  25  28  32  33  34  35 0
 6-311+G(2d,p)
 ****
 36  39  40 0
 6-311+G(2d,p)
 ****
 1  2  3  4  5  16  17  18  19  20  21  22  23  24 0
 3-21G
 ****
 26  27  29  30  31  37  38  41  42  43  44  45  46  47 0
 3-21G
 ****
 48 0
 3-21G
 ****


