%nproc=1
%NoSave
%Mem=1900MB
#P OB98/GEN NMR

erre ene a

0 1
  C      557.207     921.551    -348.379
  O      557.881     921.872    -347.156
  P      557.320     923.068    -346.255
  C      556.673     921.397    -344.392
  O      556.273     922.491    -345.187
  C      555.465     920.768    -343.676
  O      554.541     920.206    -344.647
  C      555.837     919.602    -342.770
  O      556.544     919.920    -341.594
  C      554.498     918.887    -342.602
  O      553.692     919.502    -341.594
  C      553.868     919.093    -344.006
  N      553.915     917.892    -344.829
  C      552.824     917.046    -344.788
  O      551.843     917.247    -344.054
  N      552.881     915.924    -345.574
  C      553.922     915.550    -346.351
  O      553.948     914.529    -347.026
  C      555.072     916.485    -346.350
  C      555.026     917.588    -345.609
  O      556.891     924.302    -346.978
  O      558.596     923.404    -345.306
  H      552.887     918.987    -341.497
  H      558.649     924.377    -345.226
  H      552.071     915.308    -345.532
  H      555.943     916.214    -346.968
  H      555.859     918.288    -345.592
  H      552.805     919.379    -343.912
  H      554.641     917.844    -342.324
  H      556.491     918.923    -343.336
  H      554.938     921.564    -343.147
  H      557.413     921.720    -343.658
  H      557.193     920.651    -345.022
  P      558.151     920.173    -341.562
  C      557.870     922.611    -340.740
  O      558.406     921.751    -341.708
  O      558.988     919.252    -342.381
  O      558.467     919.930    -340.002
  H      559.349     919.544    -339.943
  H      558.143     923.645    -341.012
  H      558.301     922.397    -339.760
  H      556.775     922.532    -340.699
  H      557.706     920.734    -348.857
  H      557.217     922.403    -349.026
  H      556.195     921.276    -348.167

 3  4  5  6  7  8  9  10  11  12  13  23  28  29  30  31  32 0
 6-311+G(2d,p)
 ****
 33  34 0
 6-311+G(2d,p)
 ****
 1  2  14  15  16  17  18  19  20  21  22  24  25  26  27 0
 3-21G
 ****
 35  36  37  38  39  40  41  42  43  44  45 0
 3-21G
 ****


