%nproc=1
%NoSave
%Mem=1900MB
#P OB98/GEN NMR

erre ene a

0 1
  C       55.554    -521.992    -315.101
  O       54.945    -523.245    -314.879
  H       55.456    -521.735    -316.159
  H       56.620    -522.050    -314.858
  H       55.081    -521.209    -314.503
  P       54.698    -523.737    -313.372
  C       55.412    -526.173    -313.863
  O       54.358    -525.305    -313.467
  C       54.837    -527.458    -314.460
  O       54.407    -528.317    -313.364
  C       53.618    -527.221    -315.372
  O       53.639    -528.195    -316.424
  C       52.470    -527.501    -314.427
  O       51.274    -527.789    -315.116
  C       53.032    -528.673    -313.619
  N       52.270    -528.895    -312.397
  C       51.151    -529.714    -312.495
  O       50.780    -530.241    -313.549
  N       50.412    -529.868    -311.357
  C       50.617    -529.200    -310.177
  O       49.879    -529.307    -309.211
  C       51.783    -528.298    -310.144
  C       52.548    -528.194    -311.239
  O       53.725    -522.934    -312.572
  O       56.159    -523.752    -312.715
  H       51.382    -528.594    -315.653
  H       56.101    -523.712    -311.744
  H       49.606    -530.469    -311.407
  H       51.967    -527.742    -309.236
  H       53.405    -527.532    -311.255
  H       53.032    -529.592    -314.217
  H       52.283    -526.634    -313.788
  H       53.593    -526.211    -315.801
  H       55.631    -527.993    -314.991
  H       56.009    -526.406    -312.972
  H       56.047    -525.666    -314.597
  P       53.833    -527.775    -317.966
  C       51.342    -527.753    -318.581
  O       52.616    -528.322    -318.858
  O       55.189    -528.095    -318.518
  O       53.611    -526.187    -317.975
  H       54.311    -525.767    -318.508
  H       50.609    -528.187    -319.229
  H       51.381    -526.696    -318.743
  H       51.078    -527.948    -317.563

 6  7  8  9  10  11  12  13  14  15  16  26  31  32  33  34  35 0
 6-311+G(2d,p)
 ****
 36  37 0
 6-311+G(2d,p)
 ****
 1  2  3  4  5  17  18  19  20  21  22  23  24  25 0
 3-21G
 ****
 27  28  29  30  38  39  40  41  42  43  44  45 0
 3-21G
 ****


