%nproc=1
%NoSave
%Mem=1900MB
#P OB98/GEN NMR

erre ene a

0 1
  C      156.057     -70.927      17.681
  O      156.914     -69.806      17.434
  P      158.028     -69.989      16.289
  C      159.977     -68.662      17.389
  O      159.003     -68.717      16.354
  C      161.005     -67.568      17.107
  O      161.483     -67.641      15.748
  C      160.466     -66.149      17.258
  O      160.416     -65.749      18.618
  C      161.516     -65.353      16.496
  O      162.649     -65.097      17.347
  C      161.902     -66.314      15.358
  N      162.313     -63.678      11.046
  C      163.176     -63.760      12.121
  N      164.332     -63.061      12.017
  N      162.934     -64.464      13.199
  C      161.758     -65.135      13.146
  C      160.819     -65.134      12.143
  C      161.084     -64.325      10.969
  O      160.338     -64.195      10.006
  N      159.753     -65.947      12.450
  C      160.068     -66.457      13.623
  N      161.266     -65.986      14.096
  O      157.195     -69.748      14.940
  O      158.697     -71.325      16.299
  H      162.992     -65.965      17.635
  H      157.616     -70.224      14.197
  H      162.544     -63.118      10.245
  H      159.463     -67.172      14.168
  H      162.984     -66.346      15.202
  H      161.145     -64.379      16.163
  H      164.611     -62.561      11.189
  H      159.491     -66.046      16.762
  H      164.991     -63.139      12.782
  H      161.857     -67.717      17.784
  H      160.487     -69.625      17.468
  H      159.472     -68.490      18.345
  P      159.156     -64.870      19.078
  C      160.566     -63.312      20.604
  O      159.545     -64.292      20.520
  O      158.039     -65.972      19.392
  O      158.693     -63.871      18.069
  H      157.147     -65.603      19.248
  H      160.469     -62.565      19.815
  H      161.542     -63.802      20.532
  H      160.493     -62.809      21.576
  H      155.364     -70.682      18.459
  H      156.647     -71.768      17.981
  H      155.519     -71.169      16.788

 3  4  5  6  7  8  9  10  11  12  23  26  30  31  33  0
 6-311+G(2d,p)
 ****
 35  36  37  38 0
 6-311+G(2d,p)
 ****
 1  2  13  14  15  16  17  18  19  20  21  22  24  25  27  28  29 0
 3-21G
 ****
 32  34  39  40  41  42  43  44  45  46  47  48  49 0
 3-21G
 ****


