%nproc=1
%NoSave
%Mem=1900MB
#P OB98/GEN NMR

erre ene a

0 1
  C     1515.369    -162.848     489.294
  O     1514.356    -163.811     488.962
  P     1514.786    -165.360     489.056
  C     1514.476    -166.000     486.549
  O     1514.019    -166.154     487.892
  C     1513.843    -167.073     485.640
  O     1514.290    -168.385     485.996
  C     1512.328    -167.112     485.707
  O     1511.721    -166.066     484.946
  C     1512.041    -168.485     485.119
  O     1512.038    -168.382     483.661
  C     1513.228    -169.314     485.590
  N     1511.753    -173.945     487.036
  C     1511.970    -173.440     485.775
  N     1511.794    -174.277     484.738
  N     1512.329    -172.193     485.527
  C     1512.492    -171.457     486.641
  C     1512.317    -171.839     487.977
  C     1511.895    -173.226     488.213
  O     1511.650    -173.698     489.303
  N     1512.611    -170.836     488.848
  C     1512.979    -169.835     488.063
  N     1512.940    -170.161     486.725
  O     1514.026    -165.869     490.384
  O     1516.250    -165.576     489.130
  H     1512.969    -168.181     483.414
  H     1514.501    -166.600     490.794
  H     1511.466    -174.891     487.165
  H     1513.308    -168.859     488.408
  H     1513.650    -169.947     484.787
  H     1511.052    -168.878     485.406
  H     1511.592    -175.253     484.849
  H     1511.988    -167.088     486.770
  H     1511.971    -173.954     483.795
  H     1514.148    -166.855     484.613
  H     1515.590    -166.124     486.525
  H     1514.251    -164.995     486.205
  P     1511.372    -164.719     485.719
  C     1508.865    -165.343     485.656
  O     1509.835    -164.385     485.360
  O     1512.187    -163.618     484.883
  O     1511.724    -164.697     487.161
  H     1512.430    -162.856     485.459
  H     1509.025    -165.780     486.648
  H     1508.878    -166.151     484.902
  H     1507.872    -164.873     485.639
  H     1514.968    -161.861     489.196
  H     1516.201    -162.963     488.631
  H     1515.692    -163.003     490.302

 3  4  5  6  7  8  9  10  11  12  23  26  30  31  33  0
 6-311+G(2d,p)
 ****
 35  36  37  38 0
 6-311+G(2d,p)
 ****
 1  2  13  14  15  16  17  18  19  20  21  22  24  25  27  28  29 0
 3-21G
 ****
 32  34  39  40  41  42  43  44  45  46  47  48  49 0
 3-21G
 ****


