%nproc=1
%NoSave
%Mem=1900MB
#P OB98/GEN NMR

erre ene a

0 1
  C      140.101    -800.627    -163.983
  O      140.052    -801.022    -162.626
  P      139.018    -802.210    -162.256
  C      136.717    -801.178    -161.563
  O      137.552    -801.662    -162.610
  C      135.280    -801.638    -161.799
  O      134.775    -801.104    -163.038
  C      135.119    -803.148    -161.880
  O      135.064    -803.720    -160.594
  C      133.809    -803.266    -162.662
  O      132.674    -803.093    -161.790
  C      133.930    -802.109    -163.660
  N      132.780    -803.339    -168.438
  C      131.955    -803.178    -167.336
  N      130.628    -803.324    -167.556
  N      132.387    -802.903    -166.136
  C      133.745    -802.795    -166.066
  C      134.654    -802.949    -167.074
  C      134.167    -803.205    -168.409
  O      134.836    -803.261    -169.437
  N      135.946    -802.793    -166.621
  C      135.797    -802.510    -165.336
  N      134.479    -802.480    -164.951
  O      139.057    -802.232    -160.649
  O      139.337    -803.549    -162.860
  H      132.792    -802.260    -161.282
  H      139.650    -802.941    -160.334
  H      132.382    -803.539    -169.335
  H      136.611    -802.295    -164.657
  H      132.958    -801.637    -163.860
  H      133.697    -804.249    -163.130
  H      130.221    -803.561    -168.442
  H      135.939    -803.589    -162.470
  H      130.003    -803.214    -166.749
  H      134.658    -801.233    -160.976
  H      136.754    -800.076    -161.555
  H      137.086    -801.536    -160.596
  P      135.941    -805.045    -160.325
  C      133.816    -806.410    -160.900
  O      135.205    -806.254    -161.074
  O      135.695    -805.340    -158.770
  O      137.395    -804.879    -160.627
  H      136.510    -805.694    -158.374
  H      133.399    -806.862    -161.810
  H      133.311    -805.441    -160.738
  H      133.627    -807.061    -160.055
  H      140.817    -799.840    -164.100
  H      139.136    -800.280    -164.288
  H      140.387    -801.462    -164.587

 3  4  5  6  7  8  9  10  11  12  23  26  30  31 0
 6-311+G(2d,p)
 ****
 33  35  36  37  38 0
 6-311+G(2d,p)
 ****
 1  2  13  14  15  16  17  18  19  20  21  22  24  25 0
 3-21G
 ****
 27  28  29  32  34  39  40  41  42  43  44  45  46  47  48  49 0
 3-21G
 ****


