%nproc=1
%NoSave
%Mem=1900MB
#P OB98/GEN NMR

erre ene a

0 1
  C      534.861    -553.648     884.844
  O      536.057    -554.367     884.544
  P      537.217    -553.560     883.776
  C      536.609    -553.538     881.219
  O      536.523    -552.897     882.501
  C      536.773    -552.496     880.127
  O      535.725    -551.478     880.228
  C      538.080    -551.724     880.183
  O      539.174    -552.509     879.740
  C      537.751    -550.514     879.301
  O      537.880    -550.871     877.914
  C      536.263    -550.260     879.656
  N      536.067    -549.133     880.544
  C      535.535    -547.989     879.951
  O      535.272    -547.899     878.766
  N      535.362    -546.907     880.787
  C      535.662    -546.874     882.121
  O      535.468    -545.888     882.824
  C      536.266    -548.091     882.687
  C      536.441    -549.160     881.886
  O      538.094    -554.779     883.173
  O      537.977    -552.638     884.677
  H      537.535    -555.527     882.904
  H      537.129    -551.462     877.708
  H      534.956    -546.089     880.392
  H      536.551    -548.083     883.715
  H      536.894    -550.060     882.275
  H      535.695    -550.080     878.736
  H      538.418    -549.661     879.492
  H      538.257    -551.380     881.218
  H      536.679    -552.991     879.145
  H      535.696    -554.109     881.033
  H      537.452    -554.234     881.232
  P      540.103    -553.167     880.858
  C      542.439    -551.968     880.726
  O      541.150    -552.040     881.319
  O      540.992    -554.176     879.979
  O      539.339    -553.816     881.977
  H      541.312    -553.788     879.160
  H      542.847    -550.990     880.895
  H      542.404    -552.176     879.648
  H      543.094    -552.701     881.206
  H      534.175    -554.293     885.352
  H      534.417    -553.299     883.935
  H      535.095    -552.812     885.470

 3  4  5  6  7  8  9  10  11  12  13  24  28  29  30  31  32 0
 6-311+G(2d,p)
 ****
 33  34 0
 6-311+G(2d,p)
 ****
 1  2  14  15  16  17  18  19  20  21  22  23  25  26  27 0
 3-21G
 ****
 35  36  37  38  39  40  41  42  43  44  45 0
 3-21G
 ****


