%nproc=1
%NoSave
%Mem=1900MB
#P OB98/GEN NMR

erre ene a

0 1
  C      -28.375     280.999     170.132
  O      -28.584     279.867     170.981
  P      -29.907     278.978     170.788
  C      -29.068     276.876     169.571
  O      -29.499     277.424     170.812
  C      -28.519     275.449     169.720
  O      -27.445     275.404     170.702
  C      -29.563     274.409     170.148
  O      -29.236     273.179     169.486
  C      -29.315     274.295     171.644
  O      -29.871     273.105     172.201
  C      -27.787     274.401     171.678
  N      -27.279     274.735     172.999
  C      -26.308     273.892     173.548
  O      -25.992     272.854     172.958
  N      -25.745     274.228     174.754
  C      -26.221     275.229     175.423
  N      -25.628     275.545     176.611
  C      -27.371     276.036     174.963
  C      -27.829     275.756     173.743
  O      -30.786     279.381     169.649
  O      -30.667     279.161     172.193
  H      -29.779     273.141     173.176
  H      -31.633     279.161     172.033
  H      -27.787     276.811     175.593
  H      -28.660     276.286     173.313
  H      -27.321     273.456     171.352
  H      -29.774     275.152     172.156
  H      -30.589     274.692     169.890
  H      -28.083     275.149     168.756
  H      -24.856     274.970     176.924
  H      -28.285     277.517     169.143
  H      -25.908     276.345     177.166
  H      -29.900     276.902     168.859
  P      -30.021     272.790     168.140
  C      -29.700     274.524     166.227
  O      -29.198     273.388     166.897
  O      -31.285     273.779     168.205
  O      -30.480     271.370     168.030
  H      -32.022     273.387     167.683
  H      -28.898     274.953     165.615
  H      -30.046     275.286     166.923
  H      -30.528     274.230     165.564
  H      -27.453     281.475     170.393
  H      -29.182     281.691     170.255
  H      -28.334     280.677     169.112

 3  4  5  6  7  8  9  10  11  12  13  23  27  28  29  30  32 0
 6-311+G(2d,p)
 ****
 34  35 0
 6-311+G(2d,p)
 ****
 1  2  14  15  16  17  18  19  20  21  22  24  25  26 0
 3-21G
 ****
 31  33  36  37  38  39  40  41  42  43  44  45  46 0
 3-21G
 ****


