%nproc=1
%NoSave
%Mem=1900MB
#P OB98/GEN NMR

erre ene a

0 1
  C       75.968     -55.024     -99.559
  O       75.586     -54.536    -100.828
  H       75.077     -55.111     -98.932
  H       76.666     -54.331     -99.084
  H       76.430     -56.011     -99.654
  P       76.748     -54.355    -101.925
  C       75.996     -56.382    -103.378
  O       76.136     -54.968    -103.282
  C       75.407     -56.768    -104.738
  O       74.198     -56.002    -104.968
  C       76.358     -56.506    -105.909
  O       76.314     -57.612    -106.814
  C       75.804     -55.251    -106.564
  O       76.143     -55.169    -107.948
  C       74.307     -55.367    -106.258
  N       73.645     -54.061    -106.261
  C       73.176     -53.597    -107.494
  O       73.338     -54.273    -108.514
  N       72.589     -52.361    -107.556
  C       72.528     -51.621    -106.490
  N       71.950     -50.396    -106.622
  C       73.051     -52.051    -105.177
  C       73.588     -53.270    -105.135
  O       77.835     -55.437    -101.478
  O       77.289     -52.970    -102.057
  H       75.637     -54.424    -108.340
  H       78.698     -55.295    -101.936
  H       72.993     -51.393    -104.323
  H       74.001     -53.668    -104.214
  H       73.808     -56.015    -106.994
  H       76.221     -54.368    -106.063
  H       77.391     -56.352    -105.593
  H       75.107     -57.823    -104.697
  H       71.611     -50.131    -107.537
  H       75.336     -56.728    -102.579
  H       71.874     -49.726    -105.866
  H       76.981     -56.847    -103.258
  P       77.391     -58.775    -106.557
  C       76.328     -60.358    -104.797
  O       76.582     -60.109    -106.174
  O       78.090     -58.341    -105.184
  O       78.375     -58.935    -107.669
  H       78.942     -57.902    -105.360
  H       75.785     -61.274    -104.694
  H       75.751     -59.554    -104.390
  H       77.257     -60.433    -104.271

 6  7  8  9  10  11  12  13  14  15  16  26  30  31  32  33  35 0
 6-311+G(2d,p)
 ****
 37  38 0
 6-311+G(2d,p)
 ****
 1  2  3  4  5  17  18  19  20  21  22  23  24  25 0
 3-21G
 ****
 27  28  29  34  36  39  40  41  42  43  44  45  46 0
 3-21G
 ****


