%nproc=1
%NoSave
%Mem=1900MB
#P OB98/GEN NMR

erre ene a

0 1
  C      -50.507     -73.394     107.754
  O      -50.458     -73.600     106.334
  P      -49.208     -72.978     105.539
  C      -50.897     -71.610     104.074
  O      -49.793     -72.503     104.124
  C      -51.536     -71.645     102.686
  O      -52.208     -72.910     102.464
  C      -52.600     -70.577     102.462
  O      -52.015     -69.295     102.275
  C      -53.319     -71.136     101.243
  O      -52.585     -70.834     100.045
  C      -53.274     -72.659     101.517
  N      -54.546     -73.193     101.991
  C      -55.620     -73.070     101.111
  O      -55.530     -72.525     100.011
  N      -56.814     -73.576     101.552
  C      -57.038     -74.155     102.768
  O      -58.127     -74.606     103.104
  C      -55.878     -74.212     103.671
  C      -54.704     -73.735     103.253
  O      -48.373     -74.298     105.207
  O      -48.477     -71.941     106.326
  H      -48.933     -75.071     105.024
  H      -52.475     -69.863     100.025
  H      -57.600     -73.511     100.925
  H      -56.026     -74.642     104.656
  H      -53.836     -73.766     103.905
  H      -53.000     -73.198     100.601
  H      -54.328     -70.724     101.125
  H      -53.287     -70.550     103.319
  H      -50.733     -71.544     101.938
  H      -50.563     -70.592     104.290
  H      -51.618     -71.893     104.850
  P      -52.831     -68.034     102.854
  C      -52.656     -66.278     100.926
  O      -52.192     -66.730     102.175
  O      -52.302     -67.993     104.366
  O      -54.314     -68.169     102.725
  H      -51.341     -68.111     104.436
  H      -52.368     -65.228     100.801
  H      -53.743     -66.350     100.852
  H      -52.195     -66.865     100.128
  H      -51.385     -73.858     108.152
  H      -50.533     -72.345     107.961
  H      -49.639     -73.826     108.207

 3  4  5  6  7  8  9  10  11  12  13  24  28  29  30  31  32 0
 6-311+G(2d,p)
 ****
 33  34 0
 6-311+G(2d,p)
 ****
 1  2  14  15  16  17  18  19  20  21  22  23  25  26  27 0
 3-21G
 ****
 35  36  37  38  39  40  41  42  43  44  45 0
 3-21G
 ****


