%nproc=1
%NoSave
%Mem=1900MB
#P OB98/GEN NMR

erre ene a

0 1
  C     -276.549      16.643    -141.475
  O     -277.769      17.317    -141.248
  H     -276.513      16.322    -142.521
  H     -276.476      15.760    -140.835
  H     -275.708      17.313    -141.283
  P     -278.070      17.783    -139.743
  C     -279.410      15.894    -138.559
  O     -278.133      16.454    -138.849
  C     -279.405      15.310    -137.152
  O     -278.150      14.627    -136.907
  C     -279.516      16.352    -136.044
  O     -280.847      16.804    -135.851
  C     -278.997      15.564    -134.855
  O     -280.025      14.769    -134.252
  C     -277.904      14.682    -135.488
  N     -276.561      15.173    -135.183
  C     -275.592      14.190    -134.996
  O     -275.820      12.984    -135.082
  N     -274.344      14.644    -134.668
  C     -273.994      15.945    -134.463
  O     -272.868      16.281    -134.114
  C     -275.067      16.938    -134.654
  C     -276.286      16.512    -134.997
  O     -279.593      18.271    -139.811
  O     -277.165      18.847    -139.220
  H     -279.627      19.244    -139.770
  H     -279.629      14.379    -133.449
  H     -273.623      13.949    -134.532
  H     -274.821      17.980    -134.499
  H     -277.093      17.219    -135.136
  H     -277.985      13.651    -135.116
  H     -278.611      16.230    -134.087
  H     -278.839      17.190    -136.243
  H     -280.219      14.577    -137.073
  H     -279.632      15.095    -139.275
  H     -280.171      16.674    -138.658
  P     -281.077      18.381    -135.653
  C     -281.799      18.281    -133.124
  O     -280.834      18.664    -134.093
  O     -282.666      18.470    -135.841
  O     -280.275      19.215    -136.595
  H     -283.108      17.638    -135.602
  H     -281.454      18.555    -132.149
  H     -281.946      17.222    -133.166
  H     -282.725      18.778    -133.327

 6  7  8  9  10  11  12  13  14  15  16  27  31  32  33  34  35 0
 6-311+G(2d,p)
 ****
 36  37 0
 6-311+G(2d,p)
 ****
 1  2  3  4  5  17  18  19  20  21  22  23  24  25 0
 3-21G
 ****
 26  28  29  30  38  39  40  41  42  43  44  45 0
 3-21G
 ****


