%nproc=1
%NoSave
%Mem=1900MB
#P OB98/GEN NMR

erre ene a

0 1
  C      342.014    -205.922    -236.672
  O      343.148    -205.269    -237.210
  P      343.508    -203.777    -236.755
  C      345.145    -204.327    -234.808
  O      343.879    -203.842    -235.196
  C      345.690    -203.555    -233.600
  O      346.910    -204.203    -233.167
  C      346.069    -202.103    -233.886
  O      346.152    -201.400    -232.643
  C      347.451    -202.253    -234.475
  O      348.201    -201.042    -234.411
  C      348.038    -203.439    -233.667
  N      348.903    -204.289    -234.497
  C      350.159    -203.786    -234.815
  O      350.584    -202.715    -234.380
  N      350.876    -204.508    -235.738
  C      350.442    -205.635    -236.372
  O      350.952    -206.087    -237.387
  C      349.225    -206.242    -235.813
  C      348.506    -205.538    -234.935
  O      342.086    -203.045    -236.781
  O      344.505    -203.078    -237.615
  H      348.413    -200.887    -233.463
  H      341.967    -202.567    -237.621
  H      351.723    -204.066    -236.079
  H      348.925    -207.214    -236.184
  H      347.573    -205.943    -234.546
  H      348.625    -203.086    -232.809
  H      347.364    -202.532    -235.533
  H      345.386    -201.588    -234.566
  H      344.964    -203.608    -232.774
  H      345.835    -204.255    -235.653
  H      345.081    -205.392    -234.550
  P      345.848    -199.823    -232.651
  C      343.448    -199.789    -231.732
  O      344.270    -199.668    -232.879
  O      346.713    -199.001    -233.547
  O      346.029    -199.415    -231.111
  H      346.163    -198.451    -231.041
  H      342.551    -199.188    -231.879
  H      343.969    -199.447    -230.828
  H      343.162    -200.837    -231.605
  H      341.935    -206.903    -237.091
  H      341.134    -205.362    -236.909
  H      342.115    -205.995    -235.609

 3  4  5  6  7  8  9  10  11  12  13  23  28  29  30  31  32 0
 6-311+G(2d,p)
 ****
 33  34 0
 6-311+G(2d,p)
 ****
 1  2  14  15  16  17  18  19  20  21  22  24  25  26  27 0
 3-21G
 ****
 35  36  37  38  39  40  41  42  43  44  45 0
 3-21G
 ****


