%nproc=1
%NoSave
%Mem=1900MB
#P OB98/GEN NMR

erre ene a

0 1
  C     -238.497     -79.950     -64.990
  O     -238.501     -79.050     -63.897
  P     -239.510     -77.803     -63.935
  C     -241.529     -79.018     -62.773
  O     -240.992     -78.417     -63.937
  C     -242.991     -78.603     -62.585
  O     -243.579     -79.409     -61.529
  C     -243.189     -77.130     -62.202
  O     -244.400     -76.686     -62.827
  C     -243.360     -77.195     -60.695
  O     -244.029     -76.059     -60.170
  C     -244.136     -78.508     -60.553
  N     -244.055     -79.090     -59.213
  C     -245.228     -79.177     -58.470
  O     -246.321     -78.776     -58.865
  N     -245.099     -79.725     -57.220
  C     -243.935     -80.122     -56.629
  O     -243.876     -80.589     -55.499
  C     -242.723     -79.960     -57.443
  C     -242.838     -79.470     -58.678
  O     -239.302     -77.282     -65.431
  O     -239.253     -76.791     -62.873
  H     -239.147     -78.001     -66.066
  H     -244.926     -76.034     -60.551
  H     -245.944     -79.834     -56.677
  H     -241.776     -80.249     -57.005
  H     -241.959     -79.341     -59.297
  H     -245.188     -78.353     -60.823
  H     -242.374     -77.258     -60.219
  H     -242.353     -76.498     -62.518
  H     -243.535     -78.833     -63.510
  H     -240.954     -78.698     -61.901
  H     -241.440     -80.106     -62.855
  P     -244.567     -75.114     -63.128
  C     -243.883     -75.214     -65.652
  O     -243.599     -74.754     -64.350
  O     -243.790     -74.501     -61.865
  O     -245.979     -74.639     -63.224
  H     -242.923     -74.913     -61.718
  H     -243.327     -74.606     -66.369
  H     -244.949     -75.134     -65.881
  H     -243.565     -76.256     -65.751
  H     -237.776     -80.721     -64.815
  H     -238.245     -79.422     -65.886
  H     -239.468     -80.388     -65.095

 3  4  5  6  7  8  9  10  11  12  13  24  28  29  30  31  32 0
 6-311+G(2d,p)
 ****
 33  34 0
 6-311+G(2d,p)
 ****
 1  2  14  15  16  17  18  19  20  21  22  23  25  26  27 0
 3-21G
 ****
 35  36  37  38  39  40  41  42  43  44  45 0
 3-21G
 ****


