%nproc=1
%NoSave
%Mem=1900MB
#P OB98/GEN NMR

erre ene a

0 1
  C     -320.497    -158.662     -64.431
  O     -321.181    -157.859     -65.371
  H     -321.213    -159.343     -63.964
  H     -320.055    -158.034     -63.655
  H     -319.718    -159.253     -64.921
  P     -320.291    -156.947     -66.343
  C     -319.705    -158.869     -67.994
  O     -320.363    -157.626     -67.798
  C     -320.147    -159.490     -69.319
  O     -321.499    -160.008     -69.158
  C     -320.170    -158.503     -70.494
  O     -319.771    -159.203     -71.679
  C     -321.639    -158.139     -70.606
  O     -322.020    -157.668     -71.891
  C     -322.298    -159.470     -70.231
  N     -323.691    -159.311     -69.820
  C     -324.672    -159.565     -70.775
  O     -324.455    -159.992     -71.907
  N     -325.959    -159.306     -70.380
  C     -326.348    -158.810     -69.171
  O     -327.518    -158.579     -68.886
  C     -325.268    -158.555     -68.208
  C     -324.010    -158.811     -68.572
  O     -318.798    -157.258     -65.863
  O     -320.607    -155.489     -66.324
  H     -318.531    -156.640     -65.156
  H     -322.997    -157.566     -71.886
  H     -326.683    -159.484     -71.061
  H     -325.537    -158.151     -67.242
  H     -323.185    -158.613     -67.895
  H     -322.237    -160.174     -71.068
  H     -321.887    -157.361     -69.873
  H     -319.537    -157.623     -70.353
  H     -319.499    -160.347     -69.539
  H     -319.963    -159.549     -67.178
  H     -318.621    -158.708     -67.991
  P     -319.030    -158.352     -72.821
  C     -317.313    -160.167     -73.618
  O     -318.499    -159.431     -73.884
  O     -317.715    -157.876     -72.047
  O     -319.876    -157.257     -73.373
  H     -317.383    -158.537     -71.416
  H     -317.116    -160.833     -74.432
  H     -317.438    -160.731     -72.718
  H     -316.492    -159.491     -73.504

 6  7  8  9  10  11  12  13  14  15  16  27  31  32  33  34  35 0
 6-311+G(2d,p)
 ****
 36  37 0
 6-311+G(2d,p)
 ****
 1  2  3  4  5  17  18  19  20  21  22  23  24  25 0
 3-21G
 ****
 26  28  29  30  38  39  40  41  42  43  44  45 0
 3-21G
 ****


