%nproc=1
%NoSave
%Mem=1900MB
#P OB98/GEN NMR

erre ene a

0 1
  C     -131.237     267.594    -209.709
  O     -131.111     266.207    -209.455
  P     -130.306     265.670    -208.178
  C     -128.241     264.986    -209.535
  O     -128.740     265.809    -208.486
  C     -126.789     264.582    -209.283
  O     -125.951     265.767    -209.283
  C     -126.565     263.847    -207.953
  O     -125.580     262.834    -208.192
  C     -126.003     264.932    -207.053
  O     -125.269     264.403    -205.957
  C     -125.186     265.747    -208.060
  N     -124.896     267.093    -207.583
  C     -123.774     267.250    -206.772
  O     -123.155     266.260    -206.375
  N     -123.393     268.523    -206.417
  C     -124.177     269.521    -206.692
  N     -123.731     270.771    -206.381
  C     -125.496     269.356    -207.334
  C     -125.770     268.135    -207.792
  O     -130.726     264.323    -207.688
  O     -130.553     266.789    -207.056
  H     -130.894     266.359    -206.248
  H     -124.792     265.132    -205.508
  H     -126.166     270.199    -207.428
  H     -126.702     267.920    -208.303
  H     -124.236     265.239    -208.285
  H     -126.826     265.534    -206.647
  H     -127.475     263.384    -207.564
  H     -126.461     263.955    -210.122
  H     -122.807     270.851    -205.978
  H     -128.297     265.552    -210.468
  H     -124.109     271.607    -206.833
  H     -128.874     264.097    -209.646
  P     -125.646     261.485    -207.314
  C     -123.871     262.230    -205.574
  O     -125.211     261.849    -205.817
  O     -124.358     260.685    -207.853
  O     -126.872     260.641    -207.480
  H     -124.496     259.728    -207.712
  H     -123.741     262.374    -204.498
  H     -123.651     263.174    -206.081
  H     -123.181     261.454    -205.904
  H     -131.806     267.743    -210.603
  H     -130.265     268.024    -209.830
  H     -131.735     268.063    -208.887

 3  4  5  6  7  8  9  10  11  12  13  24  27  28  29  30  32 0
 6-311+G(2d,p)
 ****
 34  35 0
 6-311+G(2d,p)
 ****
 1  2  14  15  16  17  18  19  20  21  22  23  25  26 0
 3-21G
 ****
 31  33  36  37  38  39  40  41  42  43  44  45  46 0
 3-21G
 ****


