%nproc=1
%NoSave
%Mem=1900MB
#P OB98/GEN NMR

erre ene a

0 1
  C       41.247     -36.671     135.587
  O       39.959     -36.966     136.089
  P       38.746     -35.941     135.906
  C       37.238     -35.223     133.962
  O       38.519     -35.712     134.336
  C       37.349     -34.106     132.925
  O       37.787     -32.886     133.578
  C       38.329     -34.405     131.783
  O       37.758     -33.871     130.583
  C       39.566     -33.622     132.178
  O       40.407     -33.340     131.069
  C       38.927     -32.398     132.844
  N       39.855     -31.691     133.713
  C       40.245     -30.411     133.313
  O       39.915     -29.981     132.207
  N       41.012     -29.663     134.170
  C       41.501     -30.215     135.239
  N       42.198     -29.419     136.094
  C       41.311     -31.643     135.562
  C       40.451     -32.303     134.790
  O       38.852     -34.684     136.706
  O       37.451     -36.782     136.337
  H       36.958     -36.283     137.017
  H       40.430     -34.125     130.481
  H       41.839     -32.088     136.392
  H       40.224     -33.350     134.963
  H       38.551     -31.701     132.086
  H       40.147     -34.197     132.909
  H       38.512     -35.475     131.651
  H       36.347     -33.916     132.521
  H       42.272     -28.438     135.860
  H       36.749     -34.831     134.856
  H       42.336     -29.668     137.073
  H       36.624     -36.046     133.578
  P       38.186     -34.524     129.179
  C       37.594     -36.699     127.896
  O       37.601     -36.014     129.130
  O       39.754     -34.788     129.412
  O       37.992     -33.678     127.963
  H       40.205     -34.803     128.548
  H       37.102     -37.665     128.037
  H       38.617     -36.876     127.553
  H       37.043     -36.132     127.142
  H       41.911     -37.479     135.812
  H       41.610     -35.774     136.043
  H       41.194     -36.537     134.527

 3  4  5  6  7  8  9  10  11  12  13  24  27  28  29  30  32 0
 6-311+G(2d,p)
 ****
 34  35 0
 6-311+G(2d,p)
 ****
 1  2  14  15  16  17  18  19  20  21  22  23  25  26 0
 3-21G
 ****
 31  33  36  37  38  39  40  41  42  43  44  45  46 0
 3-21G
 ****


