%nproc=1
%NoSave
%Mem=1900MB
#P OB98/GEN NMR

erre ene a

0 1
  C      235.606     501.037    -291.573
  O      235.102     502.088    -292.383
  P      234.748     501.739    -293.912
  C      236.642     503.258    -294.826
  O      235.244     502.988    -294.787
  C      236.921     504.765    -294.727
  O      236.504     505.402    -295.963
  C      236.200     505.454    -293.569
  O      237.078     506.460    -293.046
  C      235.018     506.135    -294.243
  O      234.552     507.249    -293.482
  C      235.617     506.482    -295.610
  N      234.588     506.680    -296.629
  C      233.954     507.929    -296.659
  O      234.213     508.770    -295.801
  N      233.004     508.164    -297.624
  C      232.639     507.207    -298.412
  N      231.697     507.495    -299.355
  C      233.197     505.837    -298.338
  C      234.170     505.658    -297.446
  O      233.151     501.882    -293.941
  O      235.207     500.394    -294.365
  H      233.719     507.578    -293.891
  H      232.759     501.261    -294.587
  H      232.833     505.068    -299.000
  H      234.653     504.687    -297.332
  H      236.221     507.402    -295.547
  H      234.193     505.419    -294.353
  H      235.915     504.766    -292.767
  H      238.004     504.902    -294.645
  H      231.320     508.436    -299.375
  H      237.050     502.906    -295.781
  H      231.357     506.806    -300.020
  H      237.146     502.720    -294.016
  P      238.415     505.970    -292.305
  C      237.396     507.067    -290.209
  O      238.545     506.927    -291.021
  O      239.548     506.562    -293.267
  O      238.605     504.507    -292.080
  H      240.427     506.274    -292.951
  H      237.665     507.626    -289.306
  H      237.012     506.081    -289.916
  H      236.619     507.621    -290.747
  H      235.797     501.407    -290.587
  H      236.515     500.665    -291.997
  H      234.886     500.247    -291.524

 3  4  5  6  7  8  9  10  11  12  13  21  23  27  28  29  30  32 0
 6-311+G(2d,p)
 ****
 34  35 0
 6-311+G(2d,p)
 ****
 1  2  14  15  16  17  18  19  20  22  24  25  26 0
 3-21G
 ****
 31  33  36  37  38  39  40  41  42  43  44  45  46 0
 3-21G
 ****


