%nproc=1
%NoSave
%Mem=1900MB
#P OB98/GEN NMR

erre ene a

0 1
  C      627.957    -103.575     416.353
  O      626.892    -103.415     417.275
  P      626.035    -102.067     417.340
  C      624.026    -103.538     416.690
  O      624.502    -102.535     417.569
  C      622.634    -104.027     417.116
  O      622.747    -104.836     418.330
  C      621.626    -102.895     417.399
  O      620.336    -103.396     416.995
  C      621.681    -102.773     418.912
  O      620.549    -102.114     419.461
  C      621.866    -104.244     419.314
  N      622.403    -104.373     420.662
  C      621.476    -104.289     421.720
  O      620.283    -104.030     421.485
  N      621.921    -104.435     423.015
  C      623.187    -104.559     423.230
  N      623.580    -104.699     424.535
  C      624.202    -104.532     422.172
  C      623.741    -104.445     420.920
  O      626.237    -101.123     416.212
  O      626.407    -101.446     418.784
  H      620.580    -102.213     420.444
  H      627.308    -101.015     418.733
  H      625.271    -104.574     422.413
  H      624.417    -104.421     420.072
  H      620.905    -104.779     419.264
  H      622.578    -102.197     419.190
  H      621.853    -101.957     416.871
  H      622.247    -104.673     416.319
  H      622.838    -104.748     425.244
  H      624.725    -104.387     416.741
  H      624.525    -104.882     424.823
  H      624.020    -103.169     415.662
  P      619.494    -102.694     415.810
  C      618.696    -104.713     414.441
  O      618.345    -103.725     415.391
  O      620.321    -102.169     414.682
  O      618.702    -101.510     416.554
  H      618.375    -100.876     415.882
  H      617.940    -105.492     414.456
  H      619.668    -105.152     414.689
  H      618.732    -104.255     413.443
  H      628.393    -104.544     416.477
  H      628.699    -102.824     416.531
  H      627.583    -103.477     415.355

 3  4  5  6  7  8  9  10  11  12  13  23  27  28  29  30  32 0
 6-311+G(2d,p)
 ****
 34  35 0
 6-311+G(2d,p)
 ****
 1  2  14  15  16  17  18  19  20  21  22  24  25  26 0
 3-21G
 ****
 31  33  36  37  38  39  40  41  42  43  44  45  46 0
 3-21G
 ****


