%nproc=1
%NoSave
%Mem=1900MB
#P OB98/GEN NMR

erre ene a

0 1
  C      259.497      38.312    -134.231
  O      258.848      38.785    -133.068
  H      260.191      37.507    -133.975
  H      258.745      37.920    -134.921
  H      260.037      39.127    -134.721
  P      259.785      39.372    -131.905
  C      261.747      41.081    -131.922
  O      260.949      40.173    -132.668
  C      263.112      41.217    -132.588
  O      263.840      39.972    -132.485
  C      263.041      41.533    -134.077
  O      262.841      42.913    -134.333
  C      264.420      41.083    -134.528
  O      265.400      42.066    -134.152
  C      264.610      39.798    -133.706
  N      266.037      35.304    -135.700
  C      266.726      36.254    -135.031
  N      266.269      37.412    -134.515
  C      264.951      37.543    -134.734
  C      264.115      36.656    -135.394
  C      264.710      35.488    -135.897
  N      264.017      34.532    -136.606
  N      262.825      37.148    -135.439
  C      262.882      38.301    -134.804
  N      264.151      38.599    -134.387
  O      260.545      38.082    -131.341
  O      259.092      40.155    -130.841
  H      266.269      41.724    -134.437
  H      260.972      38.285    -130.487
  H      267.786      36.059    -134.897
  H      262.040      38.958    -134.629
  H      265.654      39.631    -133.422
  H      264.490      40.956    -135.612
  H      262.283      40.922    -134.582
  H      263.683      41.982    -132.050
  H      261.870      40.696    -130.905
  H      264.558      33.808    -137.051
  H      263.068      34.729    -136.885
  H      261.248      42.054    -131.882
  P      262.471      43.343    -135.836
  C      260.490      42.674    -137.376
  O      261.403      42.268    -136.364
  O      263.798      42.976    -136.649
  O      262.086      44.777    -135.995
  H      263.930      43.591    -137.394
  H      259.845      41.857    -137.623
  H      261.034      42.976    -138.247
  H      259.904      43.495    -137.019

 6  7  8  9  10  11  12  13  14  15  25  28  32  33  34  35 0
 6-311+G(2d,p)
 ****
 36  39  40 0
 6-311+G(2d,p)
 ****
 1  2  3  4  5  16  17  18  19  20  21  22  23  24 0
 3-21G
 ****
 26  27  29  30  31  37  38  41  42  43  44  45  46  47 0
 3-21G
 ****
 48 0
 3-21G
 ****


