%nproc=1
%NoSave
%Mem=1900MB
#P OB98/GEN NMR

erre ene a

0 1
  C     -254.568     -74.571     -40.978
  O     -254.797     -73.767     -42.114
  P     -255.740     -74.262     -43.309
  C     -257.814     -73.020     -42.418
  O     -257.242     -74.284     -42.734
  C     -259.333     -73.152     -42.249
  O     -259.894     -71.823     -42.015
  C     -260.024     -73.745     -43.494
  O     -260.867     -74.865     -43.224
  C     -260.717     -72.535     -44.100
  O     -261.787     -72.861     -44.966
  C     -261.064     -71.717     -42.851
  N     -261.401     -70.331     -43.165
  C     -262.722     -70.064     -43.509
  O     -263.614     -70.907     -43.554
  N     -262.997     -68.774     -43.871
  C     -262.084     -67.776     -44.034
  O     -262.386     -66.669     -44.457
  C     -260.697     -68.129     -43.694
  C     -260.423     -69.362     -43.259
  O     -255.319     -75.528     -43.973
  O     -255.779     -72.994     -44.287
  H     -262.092     -72.036     -45.391
  H     -256.130     -72.180     -43.888
  H     -263.951     -68.565     -44.124
  H     -259.949     -67.360     -43.822
  H     -259.411     -69.651     -43.002
  H     -261.895     -72.159     -42.302
  H     -259.977     -71.991     -44.698
  H     -259.286     -74.134     -44.205
  H     -259.518     -73.767     -41.365
  H     -257.604     -72.324     -43.234
  H     -257.349     -72.617     -41.513
  P     -261.157     -76.064     -44.244
  C     -259.028     -77.402     -43.580
  O     -259.763     -76.762     -44.603
  O     -262.007     -75.708     -45.417
  O     -261.886     -77.160     -43.332
  H     -262.492     -77.691     -43.882
  H     -257.966     -77.363     -43.835
  H     -259.334     -78.449     -43.519
  H     -259.178     -76.917     -42.612
  H     -253.914     -74.058     -40.304
  H     -254.118     -75.494     -41.279
  H     -255.499     -74.771     -40.489

 3  4  5  6  7  8  9  10  11  12  13  23  28  29  30  31  32 0
 6-311+G(2d,p)
 ****
 33  34 0
 6-311+G(2d,p)
 ****
 1  2  14  15  16  17  18  19  20  21  22  24  25  26  27 0
 3-21G
 ****
 35  36  37  38  39  40  41  42  43  44  45 0
 3-21G
 ****


