%nproc=1
%NoSave
%Mem=1900MB
#P OB98/GEN NMR

erre ene a

0 1
  C      298.046     -67.514     167.259
  O      298.798     -66.870     168.291
  P      298.322     -65.412     168.757
  C      298.942     -62.946     168.228
  O      299.288     -64.317     168.089
  C      299.902     -62.042     167.437
  O      301.266     -62.194     167.916
  C      299.922     -62.340     165.935
  O      300.217     -61.126     165.238
  C      301.111     -63.275     165.801
  O      301.581     -63.342     164.455
  C      302.072     -62.642     166.805
  N      306.530     -64.701     165.649
  C      305.750     -63.809     164.940
  N      306.249     -63.376     163.762
  N      304.583     -63.379     165.349
  C      304.232     -63.870     166.562
  C      304.911     -64.762     167.358
  C      306.189     -65.248     166.879
  O      306.912     -66.051     167.462
  N      304.214     -65.039     168.507
  C      303.112     -64.323     168.401
  N      303.093     -63.568     167.257
  O      298.733     -65.376     170.305
  O      296.857     -65.167     168.582
  H      302.406     -63.878     164.463
  H      297.934     -65.429     170.859
  H      307.415     -65.005     165.284
  H      302.303     -64.313     169.114
  H      302.593     -61.772     166.390
  H      300.825     -64.288     166.116
  H      307.164     -63.625     163.416
  H      298.999     -62.771     165.539
  H      305.716     -62.687     163.244
  H      299.611     -60.998     167.602
  H      298.958     -62.659     169.282
  H      297.906     -62.807     167.903
  P      298.999     -60.404     164.492
  C      297.517     -61.021     162.448
  O      298.700     -61.274     163.179
  O      299.652     -59.064     163.907
  O      297.816     -60.119     165.356
  H      298.971     -58.379     163.787
  H      297.769     -60.456     161.545
  H      296.783     -60.457     163.036
  H      297.072     -61.974     162.157
  H      298.474     -68.473     167.051
  H      298.069     -66.914     166.374
  H      297.033     -67.638     167.580

 3  4  5  6  7  8  9  10  11  12  23  26  30  31 0
 6-311+G(2d,p)
 ****
 33  35  36  37  38 0
 6-311+G(2d,p)
 ****
 1  2  13  14  15  16  17  18  19  20  21  22  24  25 0
 3-21G
 ****
 27  28  29  32  34  39  40  41  42  43  44  45  46  47  48  49 0
 3-21G
 ****


