%nproc=1
%NoSave
%Mem=1900MB
#P OB98/GEN NMR

erre ene a

0 1
  C      330.141      35.049    -107.828
  O      330.427      34.319    -106.652
  H      330.716      34.652    -108.669
  H      329.075      34.949    -108.054
  H      330.375      36.107    -107.683
  P      331.957      34.306    -106.165
  C      333.592      36.156    -105.344
  O      332.339      35.849    -105.939
  C      334.187      37.385    -106.025
  O      334.452      37.098    -107.417
  C      333.263      38.598    -106.021
  O      333.317      39.318    -104.800
  C      333.852      39.405    -107.163
  O      335.058      40.058    -106.728
  C      334.180      38.303    -108.184
  N      332.961      37.653    -113.114
  C      334.147      37.847    -112.495
  N      334.389      37.989    -111.177
  C      333.250      37.906    -110.473
  C      331.969      37.704    -110.961
  C      331.843      37.579    -112.355
  N      330.633      37.412    -112.992
  N      331.051      37.696    -109.931
  C      331.768      37.872    -108.840
  N      333.099      38.036    -109.117
  O      332.775      33.922    -107.486
  O      332.265      33.417    -105.007
  H      334.839      40.545    -105.912
  H      333.689      33.667    -107.259
  H      335.015      37.897    -113.147
  H      331.373      37.899    -107.832
  H      335.073      38.532    -108.777
  H      333.175      40.185    -107.522
  H      332.232      38.319    -106.273
  H      335.144      37.616    -105.542
  H      334.266      35.304    -105.469
  H      330.628      37.484    -113.998
  H      329.785      37.505    -112.452
  H      333.448      36.349    -104.275
  P      332.064      40.257    -104.437
  C      329.541      39.826    -103.999
  O      330.758      39.331    -104.545
  O      331.949      41.207    -105.720
  O      332.211      41.031    -103.172
  H      331.615      42.089    -105.471
  H      328.765      39.104    -104.145
  H      329.275      40.739    -104.489
  H      329.667      40.007    -102.952

 6  7  8  9  10  11  12  13  14  15  25  28  32  33  34  35 0
 6-311+G(2d,p)
 ****
 36  39  40 0
 6-311+G(2d,p)
 ****
 1  2  3  4  5  16  17  18  19  20  21  22  23  24 0
 3-21G
 ****
 26  27  29  30  31  37  38  41  42  43  44  45  46  47 0
 3-21G
 ****
 48 0
 3-21G
 ****


