%nproc=1
%NoSave
%Mem=1900MB
#P OB98/GEN NMR

erre ene a

0 1
  C       84.118      93.901     -64.249
  O       84.892      92.777     -64.617
  H       83.887      93.834     -63.183
  H       83.182      93.915     -64.813
  H       84.678      94.823     -64.432
  P       85.316      92.677     -66.162
  C       84.801      90.136     -66.119
  O       84.563      91.386     -66.749
  C       83.482      89.429     -65.824
  O       82.455      90.386     -65.481
  C       82.937      88.603     -66.984
  O       83.548      87.325     -67.034
  C       81.459      88.534     -66.631
  O       81.199      87.517     -65.641
  C       81.200      89.934     -66.055
  N       77.093      91.813     -68.310
  C       77.207      90.875     -67.305
  N       76.055      90.316     -66.872
  N       78.344      90.509     -66.777
  C       79.413      91.128     -67.332
  C       79.429      92.086     -68.320
  C       78.158      92.503     -68.873
  O       77.985      93.376     -69.718
  N       80.709      92.487     -68.602
  C       81.466      91.748     -67.814
  N       80.727      90.895     -67.037
  O       86.848      92.210     -66.100
  O       85.157      93.931     -66.952
  H       81.773      87.666     -64.871
  H       87.322      92.571     -66.872
  H       76.187      92.066     -68.662
  H       82.546      91.792     -67.772
  H       80.460      89.917     -65.248
  H       80.847      88.287     -67.499
  H       75.223      90.305     -67.447
  H       83.060      89.138     -67.933
  H       76.132      89.611     -66.151
  H       83.639      88.794     -64.943
  H       85.335      90.307     -65.178
  H       85.422      89.515     -66.774
  P       84.498      87.001     -68.287
  C       82.341      86.381     -69.603
  O       83.571      87.094     -69.592
  O       84.775      85.431     -68.146
  O       85.761      87.794     -68.333
  H       85.548      85.179     -68.685
  H       81.843      86.544     -70.536
  H       81.721      86.727     -68.803
  H       82.533      85.336     -69.479

 6  7  8  9  10  11  12  13  14  15  26  29  33  34 0
 6-311+G(2d,p)
 ****
 36  38  39  40  41 0
 6-311+G(2d,p)
 ****
 1  2  3  4  5  16  17  18  19  20  21  22  23  24  25 0
 3-21G
 ****
 27  28  30  31  32  35  37  42  43  44  45  46  47 0
 3-21G
 ****
 48  49 0
 3-21G
 ****


