%nproc=1
%NoSave
%Mem=1900MB
#P OB98/GEN NMR

erre ene a

0 1
  C      -36.175      99.294     985.449
  O      -37.407      99.945     985.728
  P      -38.732      99.359     985.050
  C      -38.934     101.438     983.499
  O      -38.826     100.028     983.591
  C      -40.030     101.827     982.514
  O      -39.649     101.477     981.161
  C      -41.361     101.111     982.742
  O      -42.131     101.721     983.771
  C      -42.033     101.312     981.388
  O      -42.599     102.631     981.312
  C      -40.848     101.175     980.425
  N      -41.625      98.372     976.266
  C      -41.657      99.748     976.436
  N      -42.001     100.477     975.350
  N      -41.371     100.358     977.554
  C      -41.052      99.500     978.558
  C      -40.976      98.127     978.525
  C      -41.304      97.472     977.276
  O      -41.340      96.256     977.084
  N      -40.608      97.616     979.737
  C      -40.447      98.667     980.514
  N      -40.752      99.841     979.847
  O      -39.915     100.069     985.857
  O      -38.843      97.867     985.081
  H      -43.349     102.657     981.940
  H      -40.755      99.590     985.716
  H      -41.853      97.956     975.393
  H      -40.141      98.643     981.543
  H      -40.920     101.890     979.592
  H      -42.849     100.612     981.210
  H      -42.292     100.061     974.466
  H      -41.217     100.041     982.921
  H      -42.098     101.479     975.449
  H      -40.164     102.914     982.558
  H      -37.979     101.853     983.171
  H      -39.157     101.849     984.489
  P      -43.142     100.765     984.576
  C      -45.358     101.116     983.260
  O      -44.230     100.301     983.492
  O      -43.945     101.796     985.506
  O      -42.477      99.685     985.357
  H      -44.272     101.346     986.299
  H      -45.842     100.806     982.337
  H      -45.072     102.174     983.166
  H      -46.072     101.010     984.092
  H      -35.383      99.793     985.967
  H      -35.987      99.323     984.396
  H      -36.228      98.276     985.774

 3  4  5  6  7  8  9  10  11  12  23  26  30  31 0
 6-311+G(2d,p)
 ****
 33  35  36  37  38 0
 6-311+G(2d,p)
 ****
 1  2  13  14  15  16  17  18  19  20  21  22  24  25 0
 3-21G
 ****
 27  28  29  32  34  39  40  41  42  43  44  45  46  47  48  49 0
 3-21G
 ****


