%nproc=1
%NoSave
%Mem=1900MB
#P OB98/GEN NMR

erre ene a

0 1
  C       83.802      57.023      41.951
  O       82.649      57.732      41.543
  H       84.036      57.302      42.981
  H       84.655      57.279      41.317
  H       83.620      55.946      41.914
  P       82.119      57.530      40.045
  C       80.959      55.590      38.796
  O       81.762      55.972      39.906
  C       81.317      54.177      38.345
  O       82.593      54.170      37.677
  C       81.422      53.163      39.482
  O       80.138      52.695      39.856
  C       82.265      52.087      38.818
  O       81.443      51.315      37.921
  C       83.272      52.929      38.012
  N       88.332      52.554      37.936
  C       87.390      51.986      37.102
  N       87.861      51.178      36.128
  N       86.102      52.180      37.219
  C       85.772      52.952      38.280
  C       86.612      53.557      39.187
  C       88.039      53.388      39.005
  O       88.909      53.895      39.708
  N       85.909      54.186      40.182
  C       84.646      54.007      39.847
  N       84.507      53.255      38.703
  O       83.008      58.048      38.957
  O       80.684      58.235      40.036
  H       82.030      50.678      37.472
  H       80.751      59.167      39.756
  H       89.310      52.362      37.802
  H       83.796      54.400      40.391
  H       83.555      52.443      37.072
  H       82.705      51.391      39.533
  H       88.821      50.872      36.080
  H       81.975      53.571      40.334
  H       87.181      50.707      35.544
  H       80.568      53.861      37.608
  H       81.148      56.307      37.990
  H       79.898      55.633      39.059
  P       79.890      51.950      41.258
  C       80.229      52.683      43.715
  O       80.595      52.876      42.360
  O       80.304      50.520      41.288
  O       78.342      52.191      41.564
  H       77.755      51.522      41.130
  H       80.775      53.365      44.333
  H       80.456      51.679      44.006
  H       79.180      52.860      43.830

 6  7  8  9  10  11  12  13  14  15  26  29  33  34 0
 6-311+G(2d,p)
 ****
 36  38  39  40  41 0
 6-311+G(2d,p)
 ****
 1  2  3  4  5  16  17  18  19  20  21  22  23  24  25 0
 3-21G
 ****
 27  28  30  31  32  35  37  42  43  44  45  46  47 0
 3-21G
 ****
 48  49 0
 3-21G
 ****


