%nproc=1
%NoSave
%Mem=1900MB
#P OB98/GEN NMR

erre ene a

0 1
  C      366.931    -229.587    -465.858
  O      368.207    -229.818    -465.302
  H      366.932    -228.606    -466.339
  H      366.176    -229.589    -465.067
  H      366.681    -230.341    -466.606
  P      368.583    -231.298    -464.823
  C      370.525    -231.554    -466.504
  O      369.262    -232.040    -466.071
  C      371.053    -232.383    -467.680
  O      370.161    -232.218    -468.811
  C      372.437    -231.903    -468.130
  O      373.203    -232.949    -468.720
  C      372.103    -230.872    -469.196
  O      373.174    -230.650    -470.115
  C      370.860    -231.488    -469.835
  N      369.750    -228.699    -473.954
  C      370.879    -229.448    -473.685
  N      371.836    -229.458    -474.643
  N      371.061    -230.108    -472.573
  C      370.057    -229.952    -471.678
  C      368.900    -229.217    -471.821
  C      368.694    -228.518    -473.071
  O      367.724    -227.823    -473.351
  N      368.122    -229.290    -470.692
  C      368.805    -230.059    -469.869
  N      369.975    -230.506    -470.432
  O      367.163    -232.033    -464.717
  O      369.345    -231.387    -463.537
  H      372.869    -229.990    -470.763
  H      367.222    -232.799    -464.119
  H      369.645    -228.235    -474.840
  H      368.490    -230.335    -468.870
  H      371.140    -232.199    -470.621
  H      371.901    -229.920    -468.701
  H      371.818    -228.812    -475.416
  H      373.010    -231.456    -467.321
  H      372.775    -229.730    -474.342
  H      371.046    -233.448    -467.423
  H      371.204    -231.624    -465.651
  H      370.453    -230.499    -466.777
  P      374.334    -233.660    -467.839
  C      373.558    -236.172    -468.131
  O      373.800    -235.062    -467.296
  O      374.422    -232.751    -466.529
  O      375.661    -233.787    -468.522
  H      375.296    -232.322    -466.467
  H      373.207    -236.992    -467.541
  H      374.465    -236.451    -468.625
  H      372.819    -235.915    -468.861

 6  7  8  9  10  11  12  13  14  15  26  29  33  34 0
 6-311+G(2d,p)
 ****
 36  38  39  40  41 0
 6-311+G(2d,p)
 ****
 1  2  3  4  5  16  17  18  19  20  21  22  23  24  25 0
 3-21G
 ****
 27  28  30  31  32  35  37  42  43  44  45  46  47 0
 3-21G
 ****
 48  49 0
 3-21G
 ****


