%nproc=1
%NoSave
%Mem=1900MB
#P OB98/GEN NMR

erre ene a

0 1
  C       51.842    -307.760    -897.570
  O       51.137    -307.097    -898.630
  P       49.533    -307.199    -898.640
  C       49.438    -304.643    -898.150
  O       48.951    -305.949    -897.840
  C       48.544    -303.568    -897.530
  O       47.252    -303.507    -898.200
  C       48.251    -303.777    -896.050
  O       49.286    -303.296    -895.230
  C       46.998    -302.932    -895.870
  O       47.378    -301.540    -895.730
  C       46.259    -303.157    -897.200
  N       41.917    -304.554    -894.990
  C       42.664    -303.394    -894.840
  N       42.181    -302.483    -893.980
  N       43.784    -303.163    -895.470
  C       44.137    -304.154    -896.310
  C       43.494    -305.359    -896.550
  C       42.265    -305.604    -895.830
  O       41.561    -306.625    -895.900
  N       44.165    -306.118    -897.460
  C       45.206    -305.393    -897.800
  N       45.255    -304.202    -897.120
  O       49.247    -308.430    -897.650
  O       48.958    -307.435    -900.000
  H       47.924    -301.333    -896.510
  H       48.410    -308.859    -897.890
  H       41.082    -304.694    -894.470
  H       45.964    -305.691    -898.530
  H       45.755    -302.243    -897.560
  H       46.444    -303.203    -894.970
  H       41.290    -302.558    -893.490
  H       48.006    -304.852    -895.860
  H       42.695    -301.615    -893.880
  H       49.059    -302.599    -897.670
  H       49.492    -304.508    -899.240
  H       50.465    -304.553    -897.800
  P       50.467    -304.306    -894.820
  C       52.477    -303.133    -895.990
  O       51.561    -304.211    -895.990
  O       49.793    -305.748    -895.040
  O       50.983    -304.141    -893.430
  H       50.159    -306.391    -894.390
  H       53.240    -303.326    -896.750
  H       52.972    -303.049    -895.000
  H       51.946    -302.198    -896.220
  H       52.894    -307.607    -897.691
  H       51.628    -308.808    -897.600
  H       51.530    -307.359    -896.628

 3  4  5  6  7  8  9  10  11  12  23  26  30  31 0
 6-311+G(2d,p)
 ****
 33  35  36  37  38 0
 6-311+G(2d,p)
 ****
 1  2  13  14  15  16  17  18  19  20  21  22  24  25 0
 3-21G
 ****
 27  28  29  32  34  39  40  41  42  43  44  45  46  47  48  49 0
 3-21G
 ****


