%nproc=1
%NoSave
%Mem=1900MB
#P OB98/GEN NMR

erre ene a

0 1
  C     1449.913     830.523    2707.102
  O     1449.587     831.754    2706.480
  H     1449.233     830.367    2707.940
  H     1450.931     830.556    2707.492
  H     1449.807     829.691    2706.398
  P     1450.491     832.255    2705.240
  C     1448.631     832.911    2703.546
  O     1449.657     831.964    2703.921
  C     1448.068     832.588    2702.191
  O     1448.967     833.147    2701.169
  C     1447.949     831.043    2701.910
  O     1446.641     830.657    2701.535
  C     1449.124     830.789    2700.996
  O     1448.948     829.622    2700.163
  C     1449.298     832.092    2700.213
  N     1450.646     832.314    2699.695
  C     1451.101     831.423    2698.707
  O     1450.437     830.469    2698.244
  N     1452.353     831.661    2698.252
  C     1453.233     832.646    2698.659
  O     1454.333     832.786    2698.216
  C     1452.695     833.508    2699.737
  C     1451.447     833.328    2700.204
  O     1451.901     831.729    2705.240
  O     1450.445     833.862    2705.378
  H     1449.781     829.519    2699.689
  H     1451.301     834.174    2705.717
  H     1452.658     831.051    2697.519
  H     1453.339     834.319    2700.098
  H     1451.054     833.967    2700.996
  H     1448.602     832.159    2699.399
  H     1450.022     830.602    2701.615
  H     1448.110     830.494    2702.850
  H     1447.086     833.068    2702.079
  H     1449.107     833.912    2703.555
  H     1447.867     832.883    2704.304
  P     1445.492     830.176    2702.528
  C     1444.032     832.112    2701.444
  O     1444.376     831.358    2702.593
  O     1445.901     829.567    2703.833
  O     1444.723     829.015    2701.650
  H     1444.376     828.387    2702.329
  H     1443.284     832.833    2701.701
  H     1443.651     831.457    2700.688
  H     1444.901     832.616    2701.075

 6  7  8  9  10  11  12  13  14  15  16  26  31  32  33  34  35 0
 6-311+G(2d,p)
 ****
 36  37 0
 6-311+G(2d,p)
 ****
 1  2  3  4  5  17  18  19  20  21  22  23  24  25 0
 3-21G
 ****
 27  28  29  30  38  39  40  41  42  43  44  45 0
 3-21G
 ****


