%nproc=1
%NoSave
%Mem=1900MB
#P OB98/GEN NMR

erre ene a

0 1
  C     -415.049     227.924     191.346
  O     -415.721     226.765     191.798
  H     -414.250     227.617     190.661
  H     -414.599     228.455     192.187
  H     -415.734     228.586     190.809
  P     -417.027     226.938     192.712
  C     -415.387     227.414     194.647
  O     -416.559     226.719     194.232
  C     -415.188     227.245     196.151
  O     -414.012     227.972     196.582
  C     -416.341     227.786     196.989
  O     -417.448     226.908     196.946
  C     -415.665     227.911     198.344
  O     -415.584     226.633     199.003
  C     -414.250     228.403     197.941
  N     -414.099     229.853     198.065
  C     -413.428     230.306     199.199
  O     -412.980     229.554     200.062
  N     -413.325     231.666     199.327
  C     -413.900     232.595     198.499
  O     -413.971     233.788     198.772
  C     -414.530     232.061     197.282
  C     -414.612     230.733     197.132
  O     -418.220     226.143     192.297
  O     -417.322     228.512     192.651
  H     -418.047     228.681     192.022
  H     -415.274     225.994     198.330
  H     -412.884     232.009     200.169
  H     -414.939     232.766     196.571
  H     -415.100     230.315     196.255
  H     -413.485     227.927     198.571
  H     -416.201     228.585     199.018
  H     -416.625     228.786     196.640
  H     -415.023     226.179     196.354
  H     -415.512     228.476     194.408
  H     -414.526     227.025     194.091
  P     -418.876     227.398     196.408
  C     -419.617     228.059     198.774
  O     -419.926     227.293     197.617
  O     -419.327     226.754     195.140
  O     -418.703     228.978     196.214
  H     -418.969     229.217     195.306
  H     -420.379     227.915     199.511
  H     -419.565     229.095     198.512
  H     -418.674     227.744     199.169

 6  7  8  9  10  11  12  13  14  15  16  27  31  32  33  34  35 0
 6-311+G(2d,p)
 ****
 36  37 0
 6-311+G(2d,p)
 ****
 1  2  3  4  5  17  18  19  20  21  22  23  24  25 0
 3-21G
 ****
 26  28  29  30  38  39  40  41  42  43  44  45 0
 3-21G
 ****


