%nproc=1
%NoSave
%Mem=1900MB
#P OB98/GEN NMR

erre ene a

0 1
  C      -22.255     190.991     139.927
  O      -22.704     189.726     140.382
  P      -24.276     189.565     140.678
  C      -25.100     189.530     143.145
  O      -24.530     190.290     142.083
  C      -24.071     188.539     143.695
  O      -22.813     189.196     143.905
  C      -24.455     187.934     145.039
  O      -25.426     186.923     144.872
  C      -23.105     187.419     145.527
  O      -22.840     186.102     145.027
  C      -22.117     188.448     144.928
  N      -21.546     189.331     145.935
  C      -20.165     189.544     145.842
  O      -19.508     188.980     144.958
  N      -19.555     190.347     146.778
  C      -20.268     190.888     147.718
  N      -19.614     191.686     148.609
  C      -21.720     190.673     147.861
  C      -22.290     189.887     146.953
  O      -24.423     188.011     141.026
  O      -25.168     189.988     139.555
  H      -23.497     185.518     145.470
  H      -25.324     187.693     140.824
  H      -22.263     191.146     148.666
  H      -23.350     189.673     146.981
  H      -21.286     187.933     144.425
  H      -23.064     187.357     146.621
  H      -24.823     188.711     145.716
  H      -23.926     187.745     142.947
  H      -18.615     191.810     148.487
  H      -25.963     188.968     142.771
  H      -20.081     192.169     149.363
  H      -25.436     190.212     143.930
  P      -26.528     186.748     146.022
  C      -26.151     184.717     147.546
  O      -25.753     186.038     147.229
  O      -27.427     185.551     145.450
  O      -27.345     187.949     146.371
  H      -28.200     185.422     146.032
  H      -25.443     184.302     148.266
  H      -26.144     184.090     146.647
  H      -27.148     184.727     147.990
  H      -21.197     190.959     139.770
  H      -22.485     191.736     140.660
  H      -22.744     191.233     139.007

 3  4  5  6  7  8  9  10  11  12  13  21  23  27  28  29  30  32 0
 6-311+G(2d,p)
 ****
 34  35 0
 6-311+G(2d,p)
 ****
 1  2  14  15  16  17  18  19  20  22  24  25  26 0
 3-21G
 ****
 31  33  36  37  38  39  40  41  42  43  44  45  46 0
 3-21G
 ****


