%nproc=1
%NoSave
%Mem=1900MB
#P OB98/GEN NMR

erre ene a

0 1
  C     -195.298     417.627    -215.459
  O     -194.746     417.168    -216.681
  P     -193.727     415.924    -216.619
  C     -192.090     417.406    -218.001
  O     -192.266     416.520    -216.901
  C     -191.176     418.566    -217.612
  O     -191.782     419.359    -216.568
  C     -189.823     418.137    -217.059
  O     -188.903     417.799    -218.079
  C     -189.386     419.402    -216.339
  O     -188.853     420.348    -217.287
  C     -190.713     419.922    -215.764
  N     -189.843     421.265    -210.958
  C     -189.674     421.990    -212.126
  N     -189.143     423.226    -211.994
  N     -189.998     421.543    -213.311
  C     -190.514     420.291    -213.292
  C     -190.730     419.476    -212.202
  C     -190.352     419.976    -210.890
  O     -190.434     419.363    -209.829
  N     -191.274     418.274    -212.573
  C     -191.391     418.358    -213.882
  N     -190.902     419.540    -214.374
  O     -194.053     415.115    -217.966
  O     -193.861     415.073    -215.401
  H     -188.300     419.837    -217.913
  H     -193.703     414.208    -217.902
  H     -189.567     421.649    -210.072
  H     -191.802     417.585    -214.520
  H     -190.791     421.012    -215.833
  H     -188.609     419.222    -215.593
  H     -188.812     423.599    -211.122
  H     -189.932     417.322    -216.328
  H     -188.948     423.754    -212.838
  H     -191.049     419.211    -218.496
  H     -193.065     417.792    -218.307
  H     -191.662     416.852    -218.844
  P     -188.506     416.251    -218.222
  C     -186.149     416.936    -217.372
  O     -187.245     416.046    -217.256
  O     -187.883     416.168    -219.695
  O     -189.646     415.301    -218.031
  H     -187.988     415.271    -220.058
  H     -185.510     416.825    -216.486
  H     -186.481     417.971    -217.436
  H     -185.557     416.684    -218.265
  H     -195.952     418.452    -215.651
  H     -194.510     417.941    -214.807
  H     -195.849     416.835    -214.997

 3  4  5  6  7  8  9  10  11  12  23  26  30  31 0
 6-311+G(2d,p)
 ****
 33  35  36  37  38 0
 6-311+G(2d,p)
 ****
 1  2  13  14  15  16  17  18  19  20  21  22  24  25 0
 3-21G
 ****
 27  28  29  32  34  39  40  41  42  43  44  45  46  47  48  49 0
 3-21G
 ****


