%nproc=1
%NoSave
%Mem=1900MB
#P OB98/GEN NMR

erre ene a

0 1
  C      167.367     593.478     -41.854
  O      166.559     594.258     -42.716
  H      168.161     593.014     -42.442
  H      166.768     592.690     -41.385
  H      167.819     594.112     -41.083
  P      165.313     595.007     -42.039
  C      163.853     594.932     -44.184
  O      164.531     595.743     -43.236
  C      163.740     595.655     -45.520
  O      162.621     596.574     -45.512
  C      164.968     596.476     -45.907
  O      165.960     595.659     -46.500
  C      164.364     597.473     -46.884
  O      164.206     596.896     -48.198
  C      162.999     597.766     -46.247
  N      162.357     602.771     -46.027
  C      162.229     601.901     -47.090
  N      161.940     602.461     -48.291
  N      162.384     600.607     -46.995
  C      162.704     600.200     -45.745
  C      162.842     600.959     -44.606
  C      162.642     602.386     -44.719
  O      162.673     603.202     -43.803
  N      163.159     600.179     -43.523
  C      163.241     598.956     -44.013
  N      162.997     598.917     -45.363
  O      165.991     596.222     -41.244
  O      164.466     594.167     -41.143
  H      163.805     596.015     -48.115
  H      165.453     596.427     -40.458
  H      162.212     603.754     -46.157
  H      163.481     598.070     -43.439
  H      162.222     597.944     -47.000
  H      164.999     598.353     -47.006
  H      162.142     603.430     -48.482
  H      165.366     597.011     -45.036
  H      161.866     601.833     -49.080
  H      163.529     594.902     -46.291
  H      162.849     594.706     -43.811
  H      164.405     593.994     -44.314
  P      167.175     595.161     -45.565
  C      169.141     596.025     -47.031
  O      168.418     594.901     -46.542
  O      166.727     593.684     -45.137
  O      167.447     596.029     -44.381
  H      167.244     593.388     -44.363
  H      169.935     595.690     -47.665
  H      169.550     596.572     -46.207
  H      168.482     596.658     -47.588

 6  7  8  9  10  11  12  13  14  15  26  29  33  34 0
 6-311+G(2d,p)
 ****
 36  38  39  40  41 0
 6-311+G(2d,p)
 ****
 1  2  3  4  5  16  17  18  19  20  21  22  23  24  25 0
 3-21G
 ****
 27  28  30  31  32  35  37  42  43  44  45  46  47 0
 3-21G
 ****
 48  49 0
 3-21G
 ****


