%nproc=1
%NoSave
%Mem=1900MB
#P OB98/GEN NMR

erre ene a

0 1
  C      256.809    -714.833     528.650
  O      255.451    -715.144     528.449
  H      256.876    -713.853     529.138
  H      257.324    -714.779     527.690
  H      257.294    -715.571     529.297
  P      255.047    -716.636     528.012
  C      254.757    -716.116     525.497
  O      255.523    -716.796     526.486
  C      254.857    -716.841     524.155
  O      253.975    -716.171     523.203
  C      256.284    -716.836     523.556
  O      256.485    -718.067     522.845
  C      256.197    -715.679     522.581
  O      257.201    -715.744     521.603
  C      254.775    -715.852     522.045
  N      254.305    -714.652     521.368
  C      254.512    -714.586     519.992
  O      255.060    -715.475     519.342
  N      254.134    -713.427     519.380
  C      253.681    -712.306     520.014
  O      253.426    -711.261     519.421
  C      253.530    -712.406     521.474
  C      253.844    -713.558     522.071
  O      253.634    -717.037     528.271
  O      256.095    -717.568     528.787
  H      257.111    -714.994     520.985
  H      255.753    -718.479     528.864
  H      254.263    -713.372     518.380
  H      253.186    -711.531     522.006
  H      253.762    -713.667     523.153
  H      254.715    -716.708     521.353
  H      256.304    -714.723     523.116
  H      257.068    -716.708     524.313
  H      254.485    -717.869     524.281
  H      255.154    -715.096     525.406
  H      253.710    -716.061     525.817
  P      257.395    -719.252     523.444
  C      259.639    -718.588     522.382
  O      258.925    -718.757     523.599
  O      257.242    -720.561     522.732
  O      256.902    -719.401     524.965
  H      256.783    -720.347     525.171
  H      260.635    -718.260     522.595
  H      259.145    -717.857     521.777
  H      259.675    -719.520     521.857

 6  7  8  9  10  11  12  13  14  15  16  26  31  32  33  34  35 0
 6-311+G(2d,p)
 ****
 36  37 0
 6-311+G(2d,p)
 ****
 1  2  3  4  5  17  18  19  20  21  22  23  24  25 0
 3-21G
 ****
 27  28  29  30  38  39  40  41  42  43  44  45 0
 3-21G
 ****


