%nproc=1
%NoSave
%Mem=1900MB
#P OB98/GEN NMR

erre ene a

0 1
  C     -236.354     223.117    -122.943
  O     -235.482     223.265    -124.047
  H     -236.346     224.044    -122.365
  H     -236.030     222.298    -122.296
  H     -237.373     222.933    -123.294
  P     -235.104     221.954    -124.892
  C     -232.995     221.584    -123.454
  O     -234.235     221.038    -123.894
  C     -231.916     220.505    -123.362
  O     -232.262     219.520    -122.364
  C     -231.721     219.709    -124.642
  O     -231.193     220.446    -125.721
  C     -230.972     218.486    -124.140
  O     -229.570     218.724    -124.004
  C     -231.612     218.286    -122.744
  N     -232.537     217.157    -122.715
  C     -231.959     215.895    -122.786
  O     -230.747     215.706    -122.892
  N     -232.831     214.841    -122.765
  C     -234.193     214.927    -122.728
  O     -234.919     213.940    -122.733
  C     -234.746     216.290    -122.693
  C     -233.907     217.328    -122.685
  O     -234.443     222.205    -126.216
  O     -236.486     221.157    -125.003
  H     -229.471     219.574    -123.532
  H     -236.441     220.460    -125.704
  H     -232.430     213.915    -122.800
  H     -235.821     216.395    -122.676
  H     -234.293     218.345    -122.658
  H     -230.833     218.103    -121.992
  H     -231.091     217.626    -124.804
  H     -232.704     219.352    -124.979
  H     -230.984     220.983    -123.045
  H     -233.154     222.020    -122.461
  H     -232.680     222.376    -124.142
  P     -231.523     220.140    -127.251
  C     -229.223     219.014    -127.780
  O     -230.638     218.888    -127.723
  O     -231.617     221.317    -128.166
  O     -232.998     219.485    -127.143
  H     -233.489     219.755    -127.945
  H     -228.796     218.091    -128.112
  H     -228.847     219.251    -126.807
  H     -228.962     219.795    -128.464

 6  7  8  9  10  11  12  13  14  15  16  26  31  32  33  34  35 0
 6-311+G(2d,p)
 ****
 36  37 0
 6-311+G(2d,p)
 ****
 1  2  3  4  5  17  18  19  20  21  22  23  24  25 0
 3-21G
 ****
 27  28  29  30  38  39  40  41  42  43  44  45 0
 3-21G
 ****


