%nproc=1
%NoSave
%Mem=1900MB
#P OB98/GEN NMR

erre ene a

0 1
  C      -76.847      51.622    -334.092
  O      -76.246      52.898    -333.958
  P      -76.012      53.740    -335.307
  C      -78.331      54.891    -334.956
  O      -77.464      54.175    -335.822
  C      -78.624      56.271    -335.545
  O      -77.407      57.042    -335.646
  C      -79.224      56.239    -336.945
  O      -80.617      55.999    -336.882
  C      -78.859      57.626    -337.464
  O      -79.786      58.615    -336.975
  C      -77.462      57.836    -336.863
  N      -75.024      59.014    -341.130
  C      -76.202      59.516    -340.612
  N      -76.788      60.510    -341.312
  N      -76.751      59.089    -339.507
  C      -76.060      58.084    -338.919
  C      -74.893      57.490    -339.341
  C      -74.269      58.010    -340.538
  O      -73.179      57.665    -340.986
  N      -74.504      56.485    -338.495
  C      -75.418      56.495    -337.547
  N      -76.373      57.457    -337.744
  O      -75.543      52.625    -336.351
  O      -75.037      54.869    -335.192
  H      -79.451      59.504    -337.191
  H      -74.571      52.622    -336.441
  H      -74.639      59.394    -341.976
  H      -75.422      55.840    -336.689
  H      -77.290      58.880    -336.573
  H      -78.894      57.681    -338.555
  H      -76.437      60.874    -342.185
  H      -78.727      55.477    -337.557
  H      -77.655      60.890    -340.951
  H      -79.294      56.795    -334.852
  H      -77.847      55.009    -333.981
  H      -79.257      54.321    -334.825
  P      -81.336      55.457    -338.210
  C      -80.915      52.944    -337.712
  O      -80.671      54.044    -338.565
  O      -80.790      56.438    -339.351
  O      -82.828      55.465    -338.154
  H      -81.495      56.602    -340.007
  H      -80.875      52.025    -338.305
  H      -81.893      53.015    -337.228
  H      -80.137      52.905    -336.946
  H      -76.945      51.171    -333.127
  H      -76.235      51.003    -334.715
  H      -77.815      51.728    -334.536

 3  4  5  6  7  8  9  10  11  12  23  26  30  31 0
 6-311+G(2d,p)
 ****
 33  35  36  37  38 0
 6-311+G(2d,p)
 ****
 1  2  13  14  15  16  17  18  19  20  21  22  24  25 0
 3-21G
 ****
 27  28  29  32  34  39  40  41  42  43  44  45  46  47  48  49 0
 3-21G
 ****


