%nproc=1
%NoSave
%Mem=1900MB
#P OB98/GEN NMR

erre ene a

0 1
  C      196.403    -122.481     -61.083
  O      196.264    -123.805     -61.544
  P      194.878    -124.446     -61.997
  C      195.296    -126.313     -60.215
  O      194.842    -125.976     -61.521
  C      195.443    -127.834     -60.060
  O      194.120    -128.429     -60.088
  C      196.234    -128.447     -61.225
  O      197.163    -129.449     -60.832
  C      195.140    -128.855     -62.203
  O      195.554    -129.833     -63.144
  C      194.019    -129.271     -61.255
  N      190.718    -130.912     -64.750
  C      191.926    -131.462     -64.369
  N      192.390    -132.467     -65.143
  N      192.622    -131.036     -63.349
  C      192.087    -129.954     -62.741
  C      190.899    -129.324     -63.028
  C      190.123    -129.824     -64.136
  O      189.102    -129.297     -64.581
  N      190.708    -128.215     -62.246
  C      191.797    -128.150     -61.508
  N      192.679    -129.166     -61.796
  O      194.414    -124.130     -63.381
  O      193.846    -123.750     -60.966
  H      194.764    -130.117     -63.639
  H      193.003    -123.623     -61.446
  H      190.265    -131.234     -65.598
  H      192.014    -127.381     -60.777
  H      194.133    -130.307     -60.931
  H      194.859    -127.963     -62.772
  H      191.949    -132.717     -66.016
  H      196.868    -127.689     -61.699
  H      193.371    -132.713     -65.038
  H      195.888    -128.055     -59.085
  H      194.539    -125.934     -59.519
  H      196.239    -125.809     -59.995
  P      198.582    -129.804     -61.470
  C      198.480    -132.366     -61.482
  O      199.063    -131.218     -60.894
  O      199.608    -128.780     -60.795
  O      198.644    -129.689     -62.958
  H      200.255    -128.478     -61.461
  H      198.671    -133.226     -60.834
  H      198.936    -132.549     -62.457
  H      197.399    -132.239     -61.595
  H      197.428    -122.293     -60.842
  H      195.800    -122.342     -60.210
  H      196.086    -121.802     -61.847

 3  4  5  6  7  8  9  10  11  12  23  26  30  31 0
 6-311+G(2d,p)
 ****
 33  35  36  37  38 0
 6-311+G(2d,p)
 ****
 1  2  13  14  15  16  17  18  19  20  21  22  24  25 0
 3-21G
 ****
 27  28  29  32  34  39  40  41  42  43  44  45  46  47  48  49 0
 3-21G
 ****


