%nproc=1
%NoSave
%Mem=1900MB
#P OB98/GEN NMR

erre ene a

0 1
  C     -964.662    1042.494     -81.944
  O     -964.170    1041.482     -81.090
  H     -964.392    1043.465     -81.526
  H     -965.751    1042.432     -82.019
  H     -964.211    1042.399     -82.932
  P     -964.490    1039.966     -81.508
  C     -966.803    1039.849     -80.341
  O     -966.100    1039.905     -81.572
  C     -967.844    1038.724     -80.364
  O     -968.894    1039.044     -81.302
  C     -967.299    1037.372     -80.790
  O     -966.698    1036.711     -79.681
  C     -968.570    1036.670     -81.237
  O     -969.271    1036.166     -80.089
  C     -969.372    1037.810     -81.882
  N     -971.681    1036.794     -86.354
  C     -971.979    1036.416     -85.087
  N     -971.287    1036.668     -83.965
  C     -970.198    1037.428     -84.214
  C     -969.774    1037.884     -85.457
  C     -970.574    1037.549     -86.564
  N     -970.281    1037.937     -87.850
  N     -968.612    1038.616     -85.336
  C     -968.375    1038.650     -84.048
  N     -969.274    1037.911     -83.327
  O     -963.821    1038.913     -80.696
  O     -964.090    1039.990     -83.060
  H     -970.167    1035.916     -80.387
  H     -964.377    1040.821     -83.474
  H     -972.875    1035.819     -84.970
  H     -967.568    1039.202     -83.581
  H     -970.443    1037.737     -81.646
  H     -968.376    1035.819     -81.890
  H     -966.608    1037.448     -81.639
  H     -968.296    1038.674     -79.369
  H     -967.294    1040.811     -80.139
  H     -970.800    1037.491     -88.590
  H     -969.391    1038.378     -88.019
  H     -966.073    1039.665     -79.546
  P     -965.436    1035.738     -79.879
  C     -966.993    1033.709     -79.644
  O     -966.051    1034.381     -80.473
  O     -964.578    1035.591     -78.662
  O     -964.663    1036.360     -81.129
  H     -963.733    1036.004     -81.159
  H     -967.334    1032.823     -80.138
  H     -967.825    1034.354     -79.454
  H     -966.528    1033.444     -78.718

 6  7  8  9  10  11  12  13  14  15  25  28  32  33  34  35 0
 6-311+G(2d,p)
 ****
 36  39  40 0
 6-311+G(2d,p)
 ****
 1  2  3  4  5  16  17  18  19  20  21  22  23  24 0
 3-21G
 ****
 26  27  29  30  31  37  38  41  42  43  44  45  46  47 0
 3-21G
 ****
 48 0
 3-21G
 ****


