%nproc=1
%NoSave
%Mem=1900MB
#P OB98/GEN NMR

erre ene a

0 1
  C      -87.698      -8.388    -347.196
  O      -88.374      -9.322    -346.377
  H      -88.433      -7.874    -347.821
  H      -86.981      -8.896    -347.848
  H      -87.181      -7.646    -346.581
  P      -87.506     -10.266    -345.419
  C      -89.047     -12.324    -345.703
  O      -87.755     -11.768    -345.919
  C      -89.478     -13.163    -346.905
  O      -90.785     -13.729    -346.678
  C      -89.586     -12.376    -348.206
  O      -88.304     -12.102    -348.732
  C      -90.443     -13.320    -349.032
  O      -89.658     -14.404    -349.555
  C      -91.441     -13.835    -347.966
  N      -92.710     -13.116    -347.959
  C      -93.497     -13.249    -349.110
  O      -93.103     -13.928    -350.057
  N      -94.702     -12.590    -349.156
  C      -95.106     -11.900    -348.138
  N      -96.309     -11.277    -348.248
  C      -94.323     -11.764    -346.894
  C      -93.143     -12.381    -346.879
  O      -87.693     -10.065    -343.947
  O      -85.994      -9.982    -345.865
  H      -89.164     -14.771    -348.795
  H      -85.595      -9.294    -345.302
  H      -94.704     -11.186    -346.064
  H      -92.504     -12.330    -346.002
  H      -91.655     -14.900    -348.123
  H      -90.908     -12.822    -349.883
  H      -90.150     -11.451    -348.044
  H      -88.770     -13.996    -347.008
  H      -96.821     -11.417    -349.112
  H      -89.739     -11.488    -345.560
  H      -96.794     -10.855    -347.469
  H      -89.057     -12.937    -344.794
  P      -88.051     -10.872    -349.729
  C      -87.711     -12.498    -351.692
  O      -88.462     -11.403    -351.188
  O      -86.696     -10.254    -349.644
  O      -89.238      -9.857    -349.385
  H      -89.043      -9.368    -348.548
  H      -88.073     -12.762    -352.664
  H      -87.815     -13.335    -351.034
  H      -86.679     -12.222    -351.758

 6  7  8  9  10  11  12  13  14  15  16  26  30  31  32  33  35 0
 6-311+G(2d,p)
 ****
 37  38 0
 6-311+G(2d,p)
 ****
 1  2  3  4  5  17  18  19  20  21  22  23  24  25 0
 3-21G
 ****
 27  28  29  34  36  39  40  41  42  43  44  45  46 0
 3-21G
 ****


