%nproc=1
%NoSave
%Mem=1900MB
#P OB98/GEN NMR

erre ene a

0 1
  C      163.055     -59.791     -82.527
  O      164.049     -59.234     -83.399
  P      165.555     -59.135     -82.859
  C      166.076     -56.621     -83.291
  O      166.312     -57.971     -83.664
  C      165.696     -55.786     -84.517
  O      164.269     -55.748     -84.717
  C      166.128     -54.330     -84.423
  O      167.491     -54.166     -84.783
  C      165.228     -53.686     -85.467
  O      165.770     -53.910     -86.784
  C      163.920     -54.467     -85.293
  N      159.216     -52.463     -85.003
  C      159.899     -53.015     -86.030
  N      161.155     -53.510     -86.034
  C      161.709     -53.409     -84.816
  C      161.135     -52.869     -83.674
  C      159.826     -52.380     -83.798
  N      159.134     -51.819     -82.747
  N      162.012     -52.928     -82.612
  C      163.091     -53.508     -83.099
  N      162.959     -53.808     -84.428
  O      166.230     -60.471     -83.425
  O      165.660     -59.055     -81.372
  H      165.751     -54.873     -86.938
  H      166.892     -60.802     -82.788
  H      159.365     -53.067     -86.976
  H      163.985     -53.730     -82.532
  H      163.419     -54.660     -86.249
  H      165.141     -52.604     -85.339
  H      165.907     -53.919     -83.429
  H      166.156     -56.251     -85.400
  H      166.966     -56.202     -82.814
  H      158.188     -51.515     -82.906
  H      159.577     -51.775     -81.841
  H      165.282     -56.594     -82.538
  P      168.493     -53.644     -83.643
  C      169.107     -51.311     -84.608
  O      169.507     -52.648     -84.381
  O      169.380     -54.938     -83.323
  O      167.817     -53.111     -82.424
  H      169.671     -54.921     -82.391
  H      169.994     -50.711     -84.828
  H      168.610     -50.892     -83.729
  H      168.429     -51.269     -85.466
  H      162.106     -59.791     -83.022
  H      162.992     -59.202     -81.636
  H      163.325     -60.795     -82.273

 3  4  5  6  7  8  9  10  11  12  22  25  29  30  31  32 0
 6-311+G(2d,p)
 ****
 33  36  37 0
 6-311+G(2d,p)
 ****
 1  2  13  14  15  16  17  18  19  20  21  23  24  26 0
 3-21G
 ****
 27  28  34  35  38  39  40  41  42  43  44  45  46  47  48 0
 3-21G
 ****


