%nproc=1
%NoSave
%Mem=1900MB
#P OB98/GEN NMR

erre ene a

0 1
  C     1044.043     456.533    1188.851
  O     1043.680     457.643    1188.038
  P     1042.201     457.656    1187.417
  C     1042.970     456.513    1185.192
  O     1042.375     457.665    1185.823
  C     1042.793     456.610    1183.682
  O     1041.400     456.437    1183.330
  C     1043.197     457.940    1183.066
  O     1044.608     458.033    1182.876
  C     1042.494     457.882    1181.743
  O     1043.227     457.083    1180.801
  C     1041.167     457.203    1182.100
  N     1037.405     459.764    1179.884
  C     1038.206     458.744    1179.385
  N     1037.991     458.392    1178.099
  N     1039.109     458.108    1180.088
  C     1039.196     458.571    1181.374
  C     1038.471     459.574    1181.988
  C     1037.494     460.262    1181.183
  O     1036.800     461.212    1181.552
  N     1038.846     459.746    1183.280
  C     1039.796     458.848    1183.476
  N     1040.079     458.137    1182.331
  O     1041.659     459.128    1187.735
  O     1041.289     456.601    1187.962
  H     1044.070     457.534    1180.634
  H     1040.706     459.161    1187.659
  H     1036.730     460.222    1179.299
  H     1040.335     458.682    1184.391
  H     1040.834     456.490    1181.335
  H     1042.368     458.883    1181.268
  H     1037.354     458.885    1177.493
  H     1042.812     458.788    1183.662
  H     1038.589     457.696    1177.681
  H     1043.374     455.785    1183.223
  H     1042.488     455.616    1185.570
  H     1044.033     456.481    1185.460
  P     1045.397     459.082    1183.818
  C     1044.400     461.061    1182.466
  O     1045.555     460.406    1182.944
  O     1046.889     458.462    1183.858
  O     1044.818     459.244    1185.191
  H     1047.342     458.727    1184.684
  H     1044.660     462.061    1182.142
  H     1043.638     461.143    1183.267
  H     1043.979     460.497    1181.622
  H     1045.049     456.656    1189.194
  H     1043.970     455.632    1188.278
  H     1043.384     456.476    1189.692

 3  4  5  6  7  8  9  10  11  12  23  26  30  31 0
 6-311+G(2d,p)
 ****
 33  35  36  37  38 0
 6-311+G(2d,p)
 ****
 1  2  13  14  15  16  17  18  19  20  21  22  24  25 0
 3-21G
 ****
 27  28  29  32  34  39  40  41  42  43  44  45  46  47  48  49 0
 3-21G
 ****


