%nproc=1
%NoSave
%Mem=1900MB
#P OB98/GEN NMR

erre ene a

0 1
  C       92.169      75.037      11.332
  O       90.800      74.732      11.158
  H       92.647      74.214      11.867
  H       92.281      75.953      11.918
  H       92.652      75.157      10.359
  P       89.890      75.874      10.487
  C       89.081      76.674      12.834
  O       89.779      76.990      11.639
  C       89.325      77.754      13.882
  O       90.699      77.727      14.331
  C       89.092      79.179      13.389
  O       87.721      79.533      13.318
  C       89.819      79.953      14.474
  O       89.027      79.960      15.676
  C       91.089      79.091      14.646
  N       92.195      79.523      13.786
  C       93.052      80.499      14.308
  O       92.868      80.961      15.433
  N       94.084      80.958      13.525
  C       94.260      80.474      12.335
  N       95.296      80.969      11.607
  C       93.391      79.436      11.752
  C       92.391      79.012      12.521
  O       88.427      75.227      10.483
  O       90.348      76.381       9.161
  H       88.969      79.035      15.977
  H       87.758      75.908      10.222
  H       93.569      79.071      10.750
  H       91.710      78.249      12.160
  H       91.433      79.102      15.688
  H       90.008      80.994      14.212
  H       89.592      79.360      12.431
  H       88.694      77.527      14.750
  H       95.838      81.721      12.012
  H       89.444      75.707      13.199
  H       95.424      80.766      10.624
  H       88.009      76.599      12.634
  P       87.310      80.676      12.266
  C       87.129      82.418      14.192
  O       87.695      82.081      12.932
  O       85.714      80.664      12.321
  O       87.826      80.465      10.875
  H       85.332      80.869      11.446
  H       87.484      83.381      14.496
  H       87.415      81.686      14.919
  H       86.062      82.441      14.109

 6  7  8  9  10  11  12  13  14  15  16  26  30  31  32  33  35 0
 6-311+G(2d,p)
 ****
 37  38 0
 6-311+G(2d,p)
 ****
 1  2  3  4  5  17  18  19  20  21  22  23  24  25 0
 3-21G
 ****
 27  28  29  34  36  39  40  41  42  43  44  45  46 0
 3-21G
 ****


