%nproc=1
%NoSave
%Mem=1900MB
#P OB98/GEN NMR

erre ene a

0 1
  C      -69.043    -895.308     281.757
  O      -67.744    -895.843     281.688
  P      -66.430    -894.944     281.538
  C      -66.183    -894.534     278.984
  O      -65.745    -895.277     280.111
  C      -65.382    -894.829     277.702
  O      -63.963    -894.628     277.964
  C      -65.533    -896.315     277.336
  O      -66.657    -896.747     276.595
  C      -64.192    -896.709     276.740
  O      -64.182    -896.685     275.309
  C      -63.234    -895.657     277.300
  N      -59.112    -898.573     277.858
  C      -59.648    -898.042     276.719
  N      -59.110    -898.506     275.553
  N      -60.614    -897.154     276.696
  C      -61.115    -896.872     277.936
  C      -60.643    -897.326     279.146
  C      -59.551    -898.273     279.164
  O      -59.100    -898.825     280.157
  N      -61.434    -896.889     280.195
  C      -62.374    -896.192     279.597
  N      -62.251    -896.186     278.236
  O      -65.555    -894.827     282.750
  O      -67.071    -893.488     281.274
  H      -64.310    -895.766     275.028
  H      -66.485    -892.825     281.693
  H      -58.422    -899.314     277.810
  H      -63.199    -895.715     280.107
  H      -62.680    -895.184     276.484
  H      -63.932    -897.751     277.032
  H      -58.485    -899.282     275.520
  H      -65.615    -896.866     278.275
  H      -59.607    -898.274     274.692
  H      -65.640    -894.134     276.898
  H      -66.106    -893.472     279.241
  H      -67.243    -894.735     278.797
  P      -67.202    -898.254     276.469
  C      -65.811    -899.004     274.456
  O      -67.097    -898.692     274.932
  O      -68.770    -898.127     276.699
  O      -66.601    -899.215     277.445
  H      -69.128    -898.999     276.990
  H      -65.797    -898.990     273.378
  H      -65.512    -900.000     274.790
  H      -65.080    -898.279     274.829
  H      -69.752    -896.104     281.855
  H      -69.249    -894.755     280.864
  H      -69.117    -894.658     282.604

 3  4  5  6  7  8  9  10  11  12  23  26  30  31 0
 6-311+G(2d,p)
 ****
 33  35  36  37  38 0
 6-311+G(2d,p)
 ****
 1  2  13  14  15  16  17  18  19  20  21  22  24  25 0
 3-21G
 ****
 27  28  29  32  34  39  40  41  42  43  44  45  46  47  48  49 0
 3-21G
 ****


