%nproc=1
%NoSave
%Mem=1900MB
#P OB98/GEN NMR

erre ene a

0 1
  C     1133.691    2318.753    -229.690
  O     1134.711    2319.677    -229.350
  H     1133.917    2317.790    -229.202
  H     1133.666    2318.599    -230.756
  H     1132.729    2319.107    -229.321
  P     1134.663    2321.150    -229.983
  C     1133.636    2322.176    -227.857
  O     1133.463    2321.913    -229.241
  C     1132.279    2322.566    -227.209
  O     1131.543    2321.291    -227.009
  C     1132.432    2323.240    -225.858
  O     1131.719    2324.498    -225.796
  C     1132.082    2322.165    -224.856
  O     1131.593    2322.633    -223.612
  C     1131.099    2321.281    -225.610
  N     1131.035    2319.893    -225.135
  C     1130.030    2319.595    -224.228
  O     1129.199    2320.395    -223.768
  N     1130.007    2318.311    -223.760
  C     1130.852    2317.308    -224.137
  O     1130.774    2316.145    -223.720
  C     1131.901    2317.670    -225.101
  C     1131.959    2318.937    -225.539
  O     1134.638    2321.201    -231.473
  O     1135.966    2321.854    -229.409
  H     1130.754    2323.094    -223.792
  H     1136.668    2321.898    -230.087
  H     1129.279    2318.075    -223.091
  H     1132.605    2316.934    -225.425
  H     1132.695    2319.249    -226.270
  H     1130.101    2321.688    -225.567
  H     1133.004    2321.594    -224.636
  H     1133.485    2323.547    -225.696
  H     1131.698    2323.158    -227.922
  H     1134.343    2323.014    -227.758
  H     1134.041    2321.297    -227.352
  P     1132.379    2325.935    -225.915
  C     1131.221    2326.377    -228.221
  O     1132.418    2326.322    -227.455
  O     1133.624    2326.104    -225.133
  O     1131.247    2326.914    -225.305
  H     1131.736    2327.635    -224.882
  H     1131.454    2326.654    -229.228
  H     1130.559    2327.102    -227.796
  H     1130.749    2325.417    -228.215

 6  7  8  9  10  11  12  13  14  15  16  26  31  32  33  34  35 0
 6-311+G(2d,p)
 ****
 36  37 0
 6-311+G(2d,p)
 ****
 1  2  3  4  5  17  18  19  20  21  22  23  24  25 0
 3-21G
 ****
 27  28  29  30  38  39  40  41  42  43  44  45 0
 3-21G
 ****


