%nproc=1
%NoSave
%Mem=1900MB
#P OB98/GEN NMR

erre ene a

0 1
  C     -282.290     193.043    -425.568
  O     -281.276     192.959    -426.553
  P     -280.276     194.198    -426.733
  C     -278.581     193.128    -425.065
  O     -279.353     194.270    -425.415
  C     -277.103     193.352    -425.391
  O     -276.677     194.628    -424.822
  C     -276.169     192.270    -424.842
  O     -275.086     192.116    -425.777
  C     -275.648     192.902    -423.560
  O     -274.443     192.310    -423.095
  C     -275.505     194.359    -424.018
  N     -275.382     195.294    -422.906
  C     -274.118     195.792    -422.614
  O     -273.097     195.485    -423.242
  N     -274.026     196.619    -421.527
  C     -275.041     196.920    -420.667
  O     -274.866     197.572    -419.637
  C     -276.358     196.365    -421.010
  C     -276.471     195.591    -422.098
  O     -281.240     195.468    -426.594
  O     -279.519     194.204    -428.020
  H     -273.818     192.289    -423.837
  H     -281.461     195.828    -427.473
  H     -273.115     196.997    -421.315
  H     -277.189     196.606    -420.355
  H     -277.429     195.156    -422.371
  H     -274.633     194.467    -424.678
  H     -276.401     192.799    -422.775
  H     -276.664     191.305    -424.672
  H     -277.001     193.435    -426.480
  H     -278.948     192.262    -425.622
  H     -278.710     192.913    -423.993
  P     -274.469     190.648    -425.972
  C     -276.252     190.153    -427.818
  O     -275.613     189.742    -426.630
  O     -274.398     190.143    -424.453
  O     -273.136     190.644    -426.662
  H     -275.197     190.369    -423.949
  H     -275.575     190.693    -428.489
  H     -277.096     190.804    -427.567
  H     -276.636     189.272    -428.346
  H     -282.868     192.143    -425.574
  H     -282.926     193.877    -425.781
  H     -281.842     193.173    -424.605

 3  4  5  6  7  8  9  10  11  12  13  23  28  29  30  31  32 0
 6-311+G(2d,p)
 ****
 33  34 0
 6-311+G(2d,p)
 ****
 1  2  14  15  16  17  18  19  20  21  22  24  25  26 0
 3-21G
 ****
 27  35  36  37  38  39  40  41  42  43  44  45 0
 3-21G
 ****


