%nproc=1
%NoSave
%Mem=1900MB
#P OB98/GEN NMR

erre ene a

0 1
  C      -90.918     116.885      95.407
  O      -91.892     117.791      94.927
  H      -89.983     117.057      94.870
  H      -91.245     115.858      95.225
  H      -90.747     117.038      96.476
  P      -93.323     117.768      95.652
  C      -95.422     116.249      95.527
  O      -94.158     116.577      94.966
  C      -96.308     115.555      94.493
  O      -96.688     116.525      93.470
  C      -95.636     114.371      93.778
  O      -96.640     113.381      93.522
  C      -95.216     114.974      92.447
  O      -95.022     113.988      91.436
  C      -96.392     115.920      92.196
  N      -95.289     116.552      87.325
  C      -95.605     115.407      88.035
  N      -95.631     114.250      87.339
  N      -95.870     115.398      89.312
  C      -95.841     116.630      89.875
  C      -95.538     117.836      89.288
  C      -95.218     117.829      87.875
  O      -94.913     118.808      87.198
  N      -95.587     118.857      90.205
  C      -95.920     118.270      91.341
  N      -96.085     116.920      91.191
  O      -94.022     119.093      95.088
  O      -93.286     117.746      97.144
  H      -95.884     113.549      91.275
  H      -93.874     119.840      95.700
  H      -95.080     116.502      86.345
  H      -96.050     118.771      92.292
  H      -97.288     115.388      91.850
  H      -94.279     115.534      92.563
  H      -95.484     114.187      86.344
  H      -94.804     113.921      94.330
  H      -95.903     113.407      87.829
  H      -97.236     115.238      94.985
  H      -95.913     117.171      95.859
  H      -95.274     115.593      96.392
  P      -97.305     112.640      94.777
  C      -96.579     110.664      96.306
  O      -96.175     111.750      95.487
  O      -98.237     111.537      94.086
  O      -98.085     113.539      95.678
  H      -98.991     111.326      94.669
  H      -95.714     110.175      96.702
  H      -97.146     109.969      95.722
  H      -97.182     111.029      97.111

 6  7  8  9  10  11  12  13  14  15  26  29  33  34 0
 6-311+G(2d,p)
 ****
 36  38  39  40  41 0
 6-311+G(2d,p)
 ****
 1  2  3  4  5  16  17  18  19  20  21  22  23  24  25 0
 3-21G
 ****
 27  28  30  31  32  35  37  42  43  44  45  46  47 0
 3-21G
 ****
 48  49 0
 3-21G
 ****


