%nproc=1
%NoSave
%Mem=1900MB
#P OB98/GEN NMR

erre ene a

0 1
  C      324.587     833.471    -385.097
  O      325.865     834.032    -384.892
  P      326.402     835.189    -385.860
  C      328.650     833.934    -385.689
  O      328.007     835.205    -385.785
  C      330.128     834.113    -385.333
  O      330.854     834.733    -386.421
  C      330.369     834.997    -384.130
  O      330.019     834.361    -382.914
  C      331.852     835.310    -384.301
  O      332.661     834.220    -383.807
  C      331.978     835.411    -385.834
  N      332.072     836.796    -386.281
  C      333.319     837.403    -386.134
  O      334.242     836.818    -385.579
  N      333.489     838.681    -386.624
  C      332.472     839.325    -387.097
  N      332.705     840.562    -387.635
  C      331.101     838.775    -387.123
  C      330.974     837.507    -386.728
  O      325.752     836.522    -385.687
  O      326.127     834.614    -387.338
  H      325.667     835.293    -387.859
  H      333.597     834.524    -383.829
  H      330.264     839.379    -387.478
  H      330.016     837.007    -386.728
  H      332.860     834.868    -386.181
  H      332.155     836.207    -383.752
  H      329.792     835.928    -384.234
  H      330.550     833.110    -385.166
  H      333.657     840.907    -387.599
  H      328.558     833.424    -386.656
  H      332.078     840.998    -388.294
  H      328.141     833.330    -384.927
  P      328.807     835.004    -382.072
  C      330.424     835.633    -380.143
  O      329.220     834.977    -380.534
  O      327.655     833.897    -382.193
  O      328.335     836.335    -382.580
  H      326.779     834.332    -382.247
  H      330.370     835.827    -379.065
  H      330.536     836.588    -380.668
  H      331.271     834.989    -380.354
  H      324.405     832.719    -384.358
  H      324.543     833.031    -386.071
  H      323.844     834.237    -385.017

 3  4  5  6  7  8  9  10  11  12  13  24  27  28  29  30  32 0
 6-311+G(2d,p)
 ****
 34  35 0
 6-311+G(2d,p)
 ****
 1  2  14  15  16  17  18  19  20  21  22  23  25  26 0
 3-21G
 ****
 31  33  36  37  38  39  40  41  42  43  44  45  46 0
 3-21G
 ****


