%nproc=1
%NoSave
%Mem=1900MB
#P OB98/GEN NMR

erre ene a

0 1
  C      766.493     244.104     298.888
  O      767.437     244.853     299.620
  P      768.034     244.333     301.000
  C      767.185     244.234     303.442
  O      766.828     244.351     302.071
  C      765.919     244.050     304.307
  O      765.113     245.266     304.212
  C      765.041     242.861     303.837
  O      764.726     241.945     304.897
  C      763.869     243.544     303.194
  O      762.701     242.749     303.102
  C      763.750     244.833     304.020
  N      762.932     245.866     303.375
  C      761.544     245.776     303.548
  O      760.992     244.915     304.234
  N      760.801     246.698     302.872
  C      761.272     247.609     301.968
  O      760.537     248.341     301.333
  C      762.726     247.626     301.782
  C      763.493     246.775     302.510
  O      769.266     245.021     301.482
  O      768.221     242.756     300.736
  H      762.473     242.425     303.998
  H      767.408     242.283     300.505
  H      759.792     246.659     302.996
  H      763.136     248.320     301.062
  H      764.573     246.764     302.377
  H      763.335     244.642     305.013
  H      764.143     243.810     302.156
  H      765.578     242.257     303.102
  H      766.256     243.921     305.350
  H      767.711     245.146     303.760
  H      767.876     243.398     303.584
  P      764.089     240.487     304.669
  C      761.671     239.481     304.462
  O      762.483     240.615     304.695
  O      764.635     239.408     305.533
  O      764.380     240.176     303.124
  H      764.463     239.220     302.979
  H      760.709     239.814     304.032
  H      761.490     238.984     305.429
  H      762.170     238.779     303.785
  H      766.228     244.636     297.998
  H      765.619     243.951     299.485
  H      766.916     243.157     298.625

 3  4  5  6  7  8  9  10  11  12  13  23  28  29  30  31  32 0
 6-311+G(2d,p)
 ****
 33  34 0
 6-311+G(2d,p)
 ****
 1  2  14  15  16  17  18  19  20  21  22  24  25  26  27 0
 3-21G
 ****
 35  36  37  38  39  40  41  42  43  44  45 0
 3-21G
 ****


