%nproc=1
%NoSave
%Mem=1900MB
#P OB98/GEN NMR

erre ene a

0 1
  C      319.350     366.247     741.751
  O      320.352     366.055     742.770
  P      320.711     367.240     743.799
  C      323.206     367.751     743.584
  O      321.894     368.132     743.170
  C      324.313     368.361     742.704
  O      324.375     369.803     742.846
  C      325.731     367.831     742.977
  O      326.399     367.819     741.720
  C      326.302     368.891     743.903
  O      327.724     368.857     743.962
  C      325.706     370.168     743.280
  N      325.676     371.269     744.231
  C      326.748     372.177     744.182
  O      327.699     371.971     743.426
  N      326.755     373.244     745.042
  C      325.818     373.356     745.931
  N      325.903     374.421     746.776
  C      324.705     372.398     746.075
  C      324.695     371.400     745.189
  O      320.934     366.790     745.201
  O      319.436     368.217     743.707
  H      327.993     368.012     744.380
  H      319.313     368.663     744.568
  H      323.958     372.508     746.845
  H      323.917     370.643     745.202
  H      326.271     370.468     742.388
  H      325.917     368.742     744.934
  H      325.746     366.831     743.437
  H      324.040     368.161     741.660
  H      326.685     375.049     746.664
  H      323.292     366.656     743.555
  H      325.282     374.545     747.573
  H      323.356     368.057     744.626
  P      326.498     366.521     740.794
  C      328.665     365.706     741.926
  O      327.318     365.418     741.649
  O      327.024     366.741     739.426
  O      325.002     365.933     740.755
  H      324.933     365.310     740.007
  H      329.047     365.006     742.670
  H      328.784     366.734     742.320
  H      329.260     365.618     741.007
  H      319.255     365.353     741.171
  H      319.640     367.056     741.114
  H      318.412     366.475     742.212

 3  4  5  6  7  8  9  10  11  12  13  23  27  28  29  30  32 0
 6-311+G(2d,p)
 ****
 34  35 0
 6-311+G(2d,p)
 ****
 1  2  14  15  16  17  18  19  20  21  22  24  25  26 0
 3-21G
 ****
 31  33  36  37  38  39  40  41  42  43  44  45  46 0
 3-21G
 ****


