%nproc=1
%NoSave
%Mem=1900MB
#P OB98/GEN NMR

erre ene a

0 1
  C      -27.715      17.646    -241.560
  O      -26.559      18.506    -241.637
  P      -26.728      19.996    -242.222
  C      -27.178      21.819    -240.412
  O      -26.219      21.078    -241.154
  C      -26.706      22.058    -238.967
  O      -26.431      20.781    -238.313
  C      -25.426      22.904    -238.846
  O      -25.533      23.653    -237.624
  C      -24.342      21.846    -238.717
  O      -23.136      22.347    -238.156
  C      -25.069      20.820    -237.834
  N      -24.472      19.484    -237.851
  C      -23.254      19.307    -237.203
  O      -22.612      20.203    -236.671
  N      -22.756      18.024    -237.210
  C      -23.325      16.942    -237.828
  O      -22.813      15.829    -237.815
  C      -24.593      17.196    -238.518
  C      -25.101      18.429    -238.502
  O      -28.320      20.191    -242.174
  O      -26.225      20.199    -243.618
  H      -22.556      21.579    -237.999
  H      -28.630      20.575    -243.017
  H      -21.885      17.872    -236.733
  H      -25.082      16.363    -239.014
  H      -26.046      18.639    -239.000
  H      -25.107      21.187    -236.808
  H      -24.109      21.445    -239.709
  H      -25.274      23.578    -239.695
  H      -27.531      22.526    -238.410
  H      -28.126      21.266    -240.386
  H      -27.351      22.778    -240.908
  P      -25.699      25.255    -237.723
  C      -28.244      25.447    -238.335
  O      -27.223      25.589    -237.364
  O      -25.646      25.448    -239.321
  O      -24.650      26.033    -237.003
  H      -26.198      24.803    -239.795
  H      -28.099      24.532    -238.929
  H      -28.251      26.315    -238.998
  H      -29.207      25.383    -237.832
  H      -27.429      16.699    -241.151
  H      -28.119      17.503    -242.540
  H      -28.454      18.097    -240.931

 3  4  5  6  7  8  9  10  11  12  13  23  28  29  30  31  32 0
 6-311+G(2d,p)
 ****
 33  34 0
 6-311+G(2d,p)
 ****
 1  2  14  15  16  17  18  19  20  21  22  24  25  26 0
 3-21G
 ****
 27  35  36  37  38  39  40  41  42  43  44  45 0
 3-21G
 ****


