%nproc=1
%NoSave
%Mem=1900MB
#P OB98/GEN NMR

erre ene a

0 1
  C     -383.156     823.480    -231.158
  O     -381.845     823.006    -230.886
  P     -381.390     821.531    -231.334
  C     -382.460     820.647    -229.152
  O     -381.298     820.694    -229.969
  C     -382.188     819.790    -227.923
  O     -381.967     818.418    -228.315
  C     -380.951     820.194    -227.126
  O     -381.205     821.356    -226.349
  C     -380.686     818.919    -226.332
  O     -381.563     818.839    -225.202
  C     -381.055     817.826    -227.363
  N     -379.892     817.250    -228.027
  C     -379.150     816.328    -227.288
  O     -379.477     816.016    -226.139
  N     -378.057     815.736    -227.880
  C     -377.723     816.062    -229.091
  N     -376.674     815.403    -229.650
  C     -378.445     817.077    -229.884
  C     -379.510     817.624    -229.292
  O     -380.162     821.484    -232.182
  O     -382.682     820.908    -232.035
  H     -381.336     818.021    -224.716
  H     -382.742     821.103    -233.003
  H     -378.118     817.326    -230.882
  H     -380.106     818.358    -229.814
  H     -381.622     817.019    -226.869
  H     -379.656     818.838    -225.974
  H     -380.113     820.391    -227.805
  H     -383.084     819.819    -227.280
  H     -376.320     814.601    -229.141
  H     -383.268     820.189    -229.733
  H     -376.536     815.383    -230.657
  H     -382.750     821.661    -228.871
  P     -380.190     822.584    -226.511
  C     -378.884     821.880    -224.381
  O     -379.631     822.892    -225.029
  O     -381.154     823.821    -226.835
  O     -379.147     822.394    -227.558
  H     -381.143     824.019    -227.790
  H     -378.382     822.322    -223.514
  H     -378.116     821.476    -225.049
  H     -379.543     821.085    -224.046
  H     -383.260     824.477    -230.783
  H     -383.872     822.843    -230.682
  H     -383.324     823.478    -232.215

 3  4  5  6  7  8  9  10  11  12  13  23  27  28  29  30  32 0
 6-311+G(2d,p)
 ****
 34  35 0
 6-311+G(2d,p)
 ****
 1  2  14  15  16  17  18  19  20  21  22  24  25  26 0
 3-21G
 ****
 31  33  36  37  38  39  40  41  42  43  44  45  46 0
 3-21G
 ****


