%nproc=1
%NoSave
%Mem=1900MB
#P OB98/GEN NMR

erre ene a

0 1
  C      -27.855      52.542       5.303
  O      -29.076      53.251       5.249
  H      -27.387      52.576       4.317
  H      -28.031      51.498       5.575
  H      -27.184      53.008       6.029
  P      -29.952      53.275       6.592
  C      -32.317      53.505       5.594
  O      -31.230      54.175       6.220
  C      -32.959      54.403       4.537
  O      -33.694      55.458       5.212
  C      -31.944      55.074       3.604
  O      -32.504      55.167       2.293
  C      -31.807      56.469       4.189
  O      -31.340      57.414       3.231
  C      -33.225      56.716       4.699
  N      -33.334      61.741       5.506
  C      -33.491      61.001       4.388
  N      -33.471      59.657       4.268
  C      -33.320      59.075       5.472
  C      -33.148      59.696       6.695
  C      -33.149      61.102       6.685
  N      -32.955      61.866       7.811
  N      -32.979      58.756       7.692
  C      -33.057      57.587       7.082
  N      -33.243      57.733       5.735
  O      -29.227      53.683       7.829
  O      -30.566      51.798       6.613
  H      -31.611      58.310       3.523
  H      -30.921      51.545       5.739
  H      -33.645      61.559       3.468
  H      -32.970      56.619       7.563
  H      -33.907      57.047       3.906
  H      -31.092      56.455       5.020
  H      -30.989      54.551       3.562
  H      -33.691      53.816       3.971
  H      -33.068      53.226       6.341
  H      -32.973      62.869       7.714
  H      -32.821      61.411       8.702
  H      -31.929      52.591       5.133
  P      -31.870      54.291       1.111
  C      -32.546      55.805      -0.861
  O      -32.717      54.544      -0.230
  O      -31.615      52.857       1.433
  O      -30.498      55.060       0.799
  H      -29.789      54.403       0.656
  H      -33.159      55.851      -1.737
  H      -31.520      55.930      -1.136
  H      -32.831      56.584      -0.185

 6  7  8  9  10  11  12  13  14  15  25  28  32  33  34  35 0
 6-311+G(2d,p)
 ****
 36  39  40 0
 6-311+G(2d,p)
 ****
 1  2  3  4  5  16  17  18  19  20  21  22  23  24 0
 3-21G
 ****
 26  27  29  30  31  37  38  41  42  43  44  45  46  47 0
 3-21G
 ****
 48 0
 3-21G
 ****


