%nproc=1
%NoSave
%Mem=1900MB
#P OB98/GEN NMR

erre ene a

0 1
  C     -933.741     557.355    1310.402
  O     -933.477     556.110    1309.775
  H     -933.093     557.465    1311.279
  H     -934.780     557.408    1310.746
  H     -933.541     558.177    1309.708
  P     -934.426     555.649    1308.564
  C     -933.942     555.224    1306.063
  O     -933.423     555.231    1307.390
  C     -932.811     555.233    1305.033
  O     -931.860     556.278    1305.367
  C     -932.011     553.922    1305.033
  O     -932.724     552.904    1304.352
  C     -930.722     554.390    1304.344
  O     -930.879     554.459    1302.926
  C     -930.546     555.812    1304.960
  N     -929.619     555.819    1306.099
  C     -928.274     555.650    1305.768
  O     -927.914     555.520    1304.600
  N     -927.360     555.627    1306.807
  C     -927.752     555.773    1308.027
  N     -926.785     555.755    1308.992
  C     -929.167     555.957    1308.419
  C     -930.045     555.963    1307.407
  O     -935.490     556.605    1308.149
  O     -935.023     554.238    1309.052
  H     -930.956     553.535    1302.629
  H     -935.856     554.384    1309.550
  H     -929.456     556.072    1309.456
  H     -931.094     556.104    1307.598
  H     -930.171     556.513    1304.207
  H     -929.891     553.709    1304.578
  H     -931.761     553.621    1306.049
  H     -933.231     555.441    1304.044
  H     -925.840     555.602    1308.710
  H     -934.566     556.115    1305.946
  H     -926.971     555.920    1309.968
  H     -934.584     554.346    1305.891
  P     -932.720     551.398    1304.936
  C     -934.461     549.505    1304.817
  O     -934.247     550.907    1304.842
  O     -932.073     551.227    1306.261
  O     -932.000     550.576    1303.758
  H     -931.034     550.733    1303.741
  H     -935.510     549.305    1304.754
  H     -934.068     549.068    1305.711
  H     -933.966     549.084    1303.967

 6  7  8  9  10  11  12  13  14  15  16  26  30  31  32  33  35 0
 6-311+G(2d,p)
 ****
 37  38 0
 6-311+G(2d,p)
 ****
 1  2  3  4  5  17  18  19  20  21  22  23  24  25 0
 3-21G
 ****
 27  28  29  34  36  39  40  41  42  43  44  45  46 0
 3-21G
 ****


