%nproc=1
%NoSave
%Mem=1900MB
#P OB98/GEN NMR

erre ene a

0 1
  C     -278.801    -233.926     230.205
  O     -277.821    -232.975     230.559
  H     -279.719    -233.708     230.757
  H     -278.463    -234.929     230.477
  H     -279.014    -233.882     229.134
  P     -276.435    -233.006     229.750
  C     -274.902    -233.418     231.805
  O     -275.296    -232.524     230.775
  C     -275.046    -232.750     233.173
  O     -276.423    -232.877     233.615
  C     -274.148    -233.359     234.252
  O     -273.664    -232.306     235.091
  C     -275.089    -234.246     235.046
  O     -274.646    -234.460     236.385
  C     -276.413    -233.480     234.922
  N     -277.561    -234.362     235.122
  C     -278.435    -234.028     236.159
  O     -278.215    -233.038     236.861
  N     -279.501    -234.850     236.419
  C     -279.636    -235.955     235.756
  N     -280.696    -236.744     236.079
  C     -278.698    -236.383     234.698
  C     -277.700    -235.543     234.430
  O     -276.566    -231.772     228.743
  O     -276.134    -234.287     229.047
  H     -273.713    -234.768     236.354
  H     -276.090    -231.944     227.908
  H     -278.837    -237.327     234.192
  H     -276.959    -235.774     233.675
  H     -276.460    -232.669     235.661
  H     -275.170    -235.224     234.558
  H     -273.301    -233.916     233.844
  H     -274.847    -231.677     233.058
  H     -281.305    -236.426     236.824
  H     -273.855    -233.697     231.655
  H     -280.872    -237.647     235.661
  H     -275.518    -234.322     231.757
  P     -272.344    -232.617     235.947
  C     -273.542    -232.149     238.205
  O     -272.457    -231.833     237.343
  O     -271.198    -231.827     235.160
  O     -272.033    -234.073     236.062
  H     -270.613    -232.458     234.699
  H     -273.482    -231.549     239.089
  H     -273.495    -233.184     238.473
  H     -274.466    -231.952     237.702

 6  7  8  9  10  11  12  13  14  15  16  26  30  31  32  33  35 0
 6-311+G(2d,p)
 ****
 37  38 0
 6-311+G(2d,p)
 ****
 1  2  3  4  5  17  18  19  20  21  22  23  24  25 0
 3-21G
 ****
 27  28  29  34  36  39  40  41  42  43  44  45  46 0
 3-21G
 ****


