%nproc=1
%NoSave
%Mem=1900MB
#P OB98/GEN NMR

erre ene a

0 1
  C      367.256     912.475    -199.833
  O      367.618     912.808    -198.511
  P      366.535     912.824    -197.334
  C      367.118     915.308    -196.659
  O      366.936     913.949    -196.282
  C      368.108     915.973    -195.697
  O      367.499     916.128    -194.386
  C      369.360     915.141    -195.537
  O      370.379     915.606    -196.440
  C      369.719     915.355    -194.082
  O      370.412     916.618    -193.903
  C      368.315     915.414    -193.420
  N      367.647     914.127    -193.102
  C      367.910     913.506    -191.890
  O      368.645     913.969    -191.024
  N      367.274     912.289    -191.707
  C      366.415     911.703    -192.591
  O      366.078     910.525    -192.523
  C      365.987     912.536    -193.712
  C      366.624     913.678    -193.935
  O      366.828     911.460    -196.556
  O      365.115     912.918    -197.779
  H      371.064     916.687    -194.609
  H      366.213     910.766    -196.820
  H      367.570     911.769    -190.883
  H      365.202     912.159    -194.350
  H      366.345     914.299    -194.778
  H      368.346     916.012    -192.500
  H      370.399     914.586    -193.735
  H      369.148     914.086    -195.695
  H      368.334     916.984    -196.078
  H      366.137     915.815    -196.623
  H      367.465     915.373    -197.684
  P      370.561     914.862    -197.847
  C      372.870     913.732    -197.814
  O      372.142     914.901    -198.136
  O      369.690     915.363    -198.960
  O      370.252     913.329    -197.501
  H      369.336     913.114    -197.747
  H      373.886     913.830    -198.210
  H      372.377     912.857    -198.248
  H      372.930     913.627    -196.724
  H      368.120     912.523    -200.462
  H      366.519     913.166    -200.186
  H      366.855     911.483    -199.854

 3  4  5  6  7  8  9  10  11  12  13  23  28  29  30  31  32 0
 6-311+G(2d,p)
 ****
 33  34 0
 6-311+G(2d,p)
 ****
 1  2  14  15  16  17  18  19  20  21  22  24  25  26  27 0
 3-21G
 ****
 35  36  37  38  39  40  41  42  43  44  45 0
 3-21G
 ****


