%nproc=1
%NoSave
%Mem=1900MB
#P OB98/GEN NMR

erre ene a

0 1
  C      205.186     213.632     -56.410
  O      203.821     213.846     -56.087
  P      203.469     214.396     -54.625
  C      201.132     213.291     -54.888
  O      201.870     214.436     -54.481
  C      199.949     213.694     -55.774
  O      198.884     214.241     -54.948
  C      200.297     214.758     -56.825
  O      199.518     214.529     -58.009
  C      199.805     216.047     -56.200
  O      199.545     217.041     -57.189
  C      198.562     215.546     -55.459
  N      196.113     219.826     -54.327
  C      196.087     219.084     -55.491
  N      195.380     219.604     -56.523
  N      196.692     217.935     -55.631
  C      197.369     217.545     -54.522
  C      197.455     218.187     -53.305
  C      196.790     219.464     -53.170
  O      196.793     220.186     -52.175
  N      198.201     217.468     -52.407
  C      198.602     216.407     -53.084
  N      198.156     216.430     -54.384
  O      203.871     215.944     -54.719
  O      204.197     213.723     -53.509
  H      198.766     216.740     -57.697
  H      204.710     216.097     -54.237
  H      195.638     220.716     -54.269
  H      199.234     215.619     -52.698
  H      197.707     215.435     -56.140
  H      200.556     216.436     -55.504
  H      194.949     220.514     -56.502
  H      201.360     214.801     -57.092
  H      195.382     219.102     -57.399
  H      199.548     212.792     -56.254
  H      200.757     212.774     -54.005
  H      201.792     212.606     -55.432
  P      200.247     214.853     -59.402
  C      198.236     216.149     -60.443
  O      199.076     215.007     -60.486
  O      200.943     213.463     -59.788
  O      201.226     215.978     -59.336
  H      201.712     213.616     -60.366
  H      198.369     216.718     -61.362
  H      198.457     216.792     -59.581
  H      197.194     215.819     -60.371
  H      205.262     213.267     -57.413
  H      205.604     212.914     -55.736
  H      205.722     214.554     -56.325

 3  4  5  6  7  8  9  10  11  12  23  26  30  31 0
 6-311+G(2d,p)
 ****
 33  35  36  37  38 0
 6-311+G(2d,p)
 ****
 1  2  13  14  15  16  17  18  19  20  21  22  24  25 0
 3-21G
 ****
 27  28  29  32  34  39  40  41  42  43  44  45  46  47  48  49 0
 3-21G
 ****


