%nproc=1
%NoSave
%Mem=1900MB
#P OB98/GEN NMR

erre ene a

0 1
  C      -54.266      41.353     174.931
  O      -54.886      41.306     173.656
  P      -53.937      41.314     172.359
  C      -54.325      43.787     171.634
  O      -53.430      42.826     172.170
  C      -53.555      44.875     170.880
  O      -54.503      45.678     170.130
  C      -52.754      45.830     171.770
  O      -51.594      46.224     171.025
  C      -53.686      47.018     171.924
  O      -53.001      48.212     172.292
  C      -54.329      47.052     170.541
  N      -56.660      51.527     170.185
  C      -55.309      51.233     170.224
  N      -54.465      52.280     170.090
  N      -54.831      50.027     170.380
  C      -55.795      49.081     170.485
  C      -57.161      49.252     170.497
  C      -57.676      50.586     170.289
  O      -58.862      50.880     170.160
  N      -57.813      48.068     170.714
  C      -56.846      47.171     170.747
  N      -55.610      47.731     170.567
  O      -54.973      41.108     171.159
  O      -52.839      40.296     172.352
  H      -53.656      48.939     172.313
  H      -55.050      40.166     170.919
  H      -56.968      52.474     170.044
  H      -56.980      46.112     170.894
  H      -53.700      47.556     169.796
  H      -54.432      46.802     172.700
  H      -54.763      53.230     169.937
  H      -52.459      45.394     172.729
  H      -53.470      52.087     170.083
  H      -52.894      44.386     170.150
  H      -54.874      44.258     172.454
  H      -55.045      43.292     170.974
  P      -50.285      46.655     171.845
  C      -50.320      49.125     171.064
  O      -50.397      48.221     172.149
  O      -49.128      46.576     170.737
  O      -49.961      45.780     173.011
  H      -48.287      46.319     171.160
  H      -50.797      50.064     171.350
  H      -50.824      48.730     170.174
  H      -49.270      49.320     170.827
  H      -55.017      41.341     175.693
  H      -53.688      42.249     175.014
  H      -53.626      40.504     175.048

 3  4  5  6  7  8  9  10  11  12  23  26  30  31 0
 6-311+G(2d,p)
 ****
 33  35  36  37  38 0
 6-311+G(2d,p)
 ****
 1  2  13  14  15  16  17  18  19  20  21  22  24  25 0
 3-21G
 ****
 27  28  29  32  34  39  40  41  42  43  44  45  46  47  48  49 0
 3-21G
 ****


