%nproc=1
%NoSave
%Mem=1900MB
#P OB98/GEN NMR

erre ene a

0 1
  C     -266.895      -8.925     -96.546
  O     -268.029      -8.373     -97.186
  H     -265.979      -8.613     -97.057
  H     -266.865      -8.567     -95.512
  H     -266.964     -10.018     -96.538
  P     -268.192      -8.700     -98.749
  C     -266.986      -7.954    -100.922
  O     -267.132      -7.771     -99.521
  C     -266.530      -6.659    -101.580
  O     -267.556      -5.653    -101.458
  C     -265.282      -6.037    -100.966
  O     -264.095      -6.682    -101.406
  C     -265.381      -4.616    -101.507
  O     -264.893      -4.578    -102.861
  C     -266.895      -4.360    -101.486
  N     -269.632      -0.294     -99.942
  C     -269.390      -0.803    -101.171
  N     -268.643      -1.877    -101.505
  C     -268.129      -2.461    -100.412
  C     -268.289      -2.055     -99.096
  C     -269.077      -0.914     -98.875
  N     -269.301      -0.391     -97.615
  N     -267.621      -2.907     -98.240
  C     -267.069      -3.814     -99.022
  N     -267.342      -3.580    -100.346
  O     -269.605      -8.034     -99.125
  O     -268.157     -10.147     -99.110
  H     -265.088      -3.685    -103.202
  H     -270.051      -8.593     -99.788
  H     -269.857      -0.278    -102.000
  H     -266.474      -4.649     -98.682
  H     -267.228      -3.852    -102.397
  H     -264.798      -3.895    -100.927
  H     -265.346      -6.013     -99.873
  H     -266.383      -6.858    -102.650
  H     -267.949      -8.258    -101.351
  H     -270.026       0.300     -97.500
  H     -268.887      -0.869     -96.822
  H     -266.255      -8.750    -101.098
  P     -262.967      -6.987    -100.304
  C     -261.480      -5.510     -98.771
  O     -262.379      -5.558     -99.876
  O     -261.779      -7.632    -101.170
  O     -263.392      -7.888     -99.192
  H     -261.230      -8.206    -100.601
  H     -261.174      -4.498     -98.604
  H     -260.622      -6.112     -98.983
  H     -261.970      -5.883     -97.896

 6  7  8  9  10  11  12  13  14  15  25  28  32  33  34  35 0
 6-311+G(2d,p)
 ****
 36  39  40 0
 6-311+G(2d,p)
 ****
 1  2  3  4  5  16  17  18  19  20  21  22  23  24 0
 3-21G
 ****
 26  27  29  30  31  37  38  41  42  43  44  45  46  47  48 0
 3-21G
 ****


