%nproc=1
%NoSave
%Mem=1900MB
#P OB98/GEN NMR

erre ene a

0 1
  C      438.978     123.114     399.967
  O      439.456     122.780     401.253
  H      438.320     122.316     399.616
  H      439.818     123.212     399.270
  H      438.415     124.050     400.001
  P      440.255     123.929     402.035
  C      442.741     124.770     402.079
  O      441.808     123.795     401.632
  C      444.111     124.130     402.278
  O      444.051     123.094     403.280
  C      444.652     123.415     401.055
  O      445.087     124.306     400.047
  C      445.789     122.613     401.673
  O      446.987     123.389     401.795
  C      445.217     122.261     403.069
  N      444.914     120.847     403.193
  C      446.030     120.006     403.371
  O      447.160     120.489     403.425
  N      445.835     118.657     403.432
  C      444.624     118.178     403.303
  N      444.507     116.818     403.335
  C      443.433     119.025     403.118
  C      443.647     120.335     403.070
  O      440.224     123.396     403.544
  O      439.706     125.306     401.858
  H      446.765     124.146     402.378
  H      440.490     122.470     403.641
  H      442.457     118.573     403.028
  H      442.825     121.028     402.932
  H      445.938     122.530     403.852
  H      446.040     121.737     401.070
  H      443.906     122.710     400.665
  H      444.810     124.911     402.626
  H      445.357     116.279     403.417
  H      442.398     125.237     403.004
  H      443.638     116.334     403.172
  H      442.792     125.556     401.312
  P      445.178     123.854     398.516
  C      447.116     122.895     397.105
  O      446.492     122.929     398.392
  O      445.113     124.951     397.511
  O      444.006     122.768     398.386
  H      444.084     122.006     398.979
  H      447.972     122.254     397.140
  H      447.421     123.883     396.830
  H      446.421     122.522     396.381

 6  7  8  9  10  11  12  13  14  15  16  26  30  31  32  33  35 0
 6-311+G(2d,p)
 ****
 37  38 0
 6-311+G(2d,p)
 ****
 1  2  3  4  5  17  18  19  20  21  22  23  24  25 0
 3-21G
 ****
 27  28  29  34  36  39  40  41  42  43  44  45  46 0
 3-21G
 ****


