%nproc=1
%NoSave
%Mem=1900MB
#P OB98/GEN NMR

erre ene a

0 1
  C      238.091    -327.175    -217.317
  O      236.904    -327.466    -218.024
  H      238.920    -327.146    -218.027
  H      238.294    -327.950    -216.574
  H      238.013    -326.199    -216.828
  P      235.537    -327.630    -217.204
  C      233.889    -326.369    -218.737
  O      234.348    -327.637    -218.281
  C      234.822    -325.830    -219.828
  O      235.036    -326.892    -220.790
  C      234.228    -324.622    -220.566
  O      235.108    -323.501    -220.596
  C      233.777    -325.214    -221.896
  O      233.727    -324.288    -222.961
  C      234.748    -326.380    -222.105
  N      234.223    -327.439    -222.964
  C      233.916    -327.100    -224.280
  O      234.064    -325.986    -224.776
  N      233.417    -328.119    -225.052
  C      233.188    -329.400    -224.646
  O      232.743    -330.269    -225.385
  C      233.505    -329.688    -223.238
  C      233.998    -328.710    -222.475
  O      235.348    -326.678    -216.071
  O      235.569    -329.148    -216.696
  H      232.948    -323.713    -222.808
  H      235.777    -329.168    -215.742
  H      233.206    -327.891    -226.011
  H      233.323    -330.692    -222.878
  H      234.245    -328.890    -221.432
  H      235.681    -326.029    -222.546
  H      232.764    -325.614    -221.770
  H      233.348    -324.236    -220.036
  H      235.791    -325.592    -219.378
  H      233.873    -325.689    -217.881
  H      232.872    -326.468    -219.134
  P      235.223    -322.395    -219.452
  C      237.678    -321.506    -219.773
  O      236.280    -321.290    -219.918
  O      235.357    -322.909    -218.058
  O      233.820    -321.604    -219.544
  H      233.611    -321.313    -218.633
  H      238.211    -320.654    -220.142
  H      237.964    -322.374    -220.329
  H      237.911    -321.652    -218.739

 6  7  8  9  10  11  12  13  14  15  16  26  31  32  33  34  35 0
 6-311+G(2d,p)
 ****
 36  37 0
 6-311+G(2d,p)
 ****
 1  2  3  4  5  17  18  19  20  21  22  23  24  25 0
 3-21G
 ****
 27  28  29  30  38  39  40  41  42  43  44  45 0
 3-21G
 ****


