%nproc=1
%NoSave
%Mem=1900MB
#P OB98/GEN NMR

erre ene a

0 1
  C       49.802      21.209    -179.711
  O       49.744      19.788    -179.842
  P       48.319      19.062    -179.745
  C       46.190      19.813    -180.985
  O       47.524      19.332    -181.111
  C       45.408      19.588    -182.280
  O       46.005      20.285    -183.391
  C       45.351      18.130    -182.701
  O       44.450      17.401    -181.887
  C       44.949      18.257    -184.162
  O       43.529      18.432    -184.294
  C       45.683      19.547    -184.590
  N       46.867      19.295    -185.396
  C       47.162      20.255    -186.371
  O       46.418      21.221    -186.536
  N       48.285      20.083    -187.143
  C       49.039      19.044    -186.962
  N       50.139      18.928    -187.753
  C       48.756      18.004    -185.954
  C       47.662      18.187    -185.219
  O       47.545      19.322    -178.495
  O       48.704      17.508    -179.871
  H       43.122      17.643    -183.885
  H       48.050      16.981    -179.373
  H       49.419      17.159    -185.838
  H       47.377      17.470    -184.458
  H       45.011      20.188    -185.175
  H       45.219      17.366    -184.737
  H       46.353      17.686    -182.631
  H       44.389      19.974    -182.134
  H       50.304      19.649    -188.444
  H       46.209      20.878    -180.742
  H       50.813      18.183    -187.655
  H       45.710      19.306    -180.141
  P       45.016      16.775    -180.525
  C       44.810      17.450    -178.032
  O       44.862      17.880    -179.378
  O       46.597      16.727    -180.782
  O       44.483      15.419    -180.189
  H       46.977      15.949    -180.336
  H       45.022      18.306    -177.384
  H       45.547      16.669    -177.833
  H       43.809      17.077    -177.803
  H       50.818      21.534    -179.799
  H       49.417      21.495    -178.754
  H       49.214      21.663    -180.482

 3  4  5  6  7  8  9  10  11  12  13  23  27  28  29  30  32 0
 6-311+G(2d,p)
 ****
 34  35 0
 6-311+G(2d,p)
 ****
 1  2  14  15  16  17  18  19  20  21  22  24  25  26 0
 3-21G
 ****
 31  33  36  37  38  39  40  41  42  43  44  45  46 0
 3-21G
 ****


