%nproc=1
%NoSave
%Mem=1900MB
#P OB98/GEN NMR

erre ene a

0 1
  C       41.260     121.051     -16.635
  O       40.723     121.727     -17.756
  H       41.399     121.771     -15.825
  H       42.229     120.613     -16.888
  H       40.573     120.270     -16.301
  P       40.502     120.844     -19.078
  C       39.161     118.698     -19.639
  O       39.670     119.549     -18.622
  C       39.059     117.262     -19.132
  O       40.370     116.717     -18.875
  C       38.257     117.106     -17.844
  O       36.868     117.035     -18.116
  C       38.818     115.798     -17.305
  O       38.217     114.665     -17.969
  C       40.305     115.913     -17.666
  N       42.562     115.086     -13.226
  C       41.717     114.278     -13.961
  N       41.402     113.080     -13.420
  N       41.213     114.616     -15.117
  C       41.566     115.863     -15.509
  C       42.392     116.759     -14.871
  C       42.986     116.350     -13.618
  O       43.806     116.985     -12.962
  N       42.521     117.917     -15.596
  C       41.749     117.733     -16.650
  N       41.143     116.503     -16.639
  O       41.962     120.255     -19.381
  O       39.963     121.579     -20.257
  H       37.298     114.568     -17.665
  H       42.097     120.238     -20.347
  H       42.945     114.761     -12.357
  H       41.604     118.449     -17.446
  H       40.745     114.937     -17.903
  H       38.607     115.677     -16.242
  H       41.515     112.892     -12.435
  H       38.483     117.915     -17.139
  H       40.725     112.522     -13.925
  H       38.614     116.662     -19.937
  H       39.836     118.733     -20.500
  H       38.172     119.054     -19.944
  P       35.857     117.704     -17.070
  C       35.258     120.159     -16.472
  O       36.257     119.252     -16.916
  O       36.309     117.060     -15.675
  O       34.415     117.438     -17.339
  H       35.661     116.386     -15.397
  H       35.670     121.145     -16.419
  H       34.913     119.864     -15.503
  H       34.438     120.151     -17.160

 6  7  8  9  10  11  12  13  14  15  26  29  33  34 0
 6-311+G(2d,p)
 ****
 36  38  39  40  41 0
 6-311+G(2d,p)
 ****
 1  2  3  4  5  16  17  18  19  20  21  22  23  24  25 0
 3-21G
 ****
 27  28  30  31  32  35  37  42  43  44  45  46  47 0
 3-21G
 ****
 48  49 0
 3-21G
 ****


