%nproc=1
%NoSave
%Mem=1900MB
#P OB98/GEN NMR

erre ene a

0 1
  C      810.288    -951.874     622.296
  O      809.960    -950.581     622.745
  H      810.229    -951.891     621.200
  H      809.578    -952.604     622.680
  H      811.300    -952.136     622.584
  P      809.934    -950.295     624.315
  C      811.744    -948.451     624.342
  O      811.418    -949.810     624.685
  C      812.827    -948.383     623.293
  O      812.341    -948.942     622.053
  C      813.298    -946.937     622.989
  O      814.734    -946.914     622.972
  C      812.762    -946.691     621.584
  O      813.502    -945.696     620.895
  C      812.808    -948.105     620.986
  N      811.997    -948.198     619.789
  C      812.700    -948.162     618.574
  O      813.944    -948.054     618.561
  N      811.997    -948.214     617.405
  C      810.703    -948.241     617.455
  N      810.056    -948.265     616.231
  C      809.940    -948.261     618.672
  C      810.625    -948.233     619.811
  O      809.406    -951.410     625.157
  O      809.077    -948.937     624.481
  H      814.414    -946.038     620.701
  H      808.727    -948.889     625.399
  H      808.834    -948.270     618.665
  H      810.128    -948.266     620.801
  H      813.852    -948.405     620.751
  H      811.720    -946.345     621.658
  H      812.929    -946.201     623.705
  H      813.670    -949.003     623.618
  H      810.649    -948.235     615.399
  H      812.033    -947.924     625.276
  H      809.057    -948.250     616.128
  H      810.822    -947.988     623.968
  P      815.446    -946.592     624.380
  C      817.038    -948.610     624.761
  O      815.797    -947.982     625.076
  O      814.253    -945.991     625.262
  O      816.594    -945.640     624.245
  H      814.422    -945.022     625.411
  H      817.122    -949.527     625.306
  H      817.845    -947.960     625.029
  H      817.078    -948.814     623.711

 6  7  8  9  10  11  12  13  14  15  16  26  30  31  32  33  35 0
 6-311+G(2d,p)
 ****
 37  38 0
 6-311+G(2d,p)
 ****
 1  2  3  4  5  17  18  19  20  21  22  23  24  25 0
 3-21G
 ****
 27  28  29  34  36  39  40  41  42  43  44  45  46 0
 3-21G
 ****


