%nproc=1
%NoSave
%Mem=1900MB
#P OB98/GEN NMR

erre ene a

0 1
  C     -758.574     408.913     365.064
  O     -757.835     407.965     365.810
  H     -759.023     409.632     365.754
  H     -759.373     408.414     364.507
  H     -757.915     409.450     364.374
  P     -757.148     406.782     364.970
  C     -757.663     404.253     364.731
  O     -758.176     405.551     364.998
  C     -758.691     403.186     365.098
  O     -758.832     403.086     366.534
  C     -760.086     403.432     364.537
  O     -760.184     402.966     363.204
  C     -760.940     402.626     365.505
  O     -760.917     401.223     365.174
  C     -760.237     402.883     366.845
  N     -763.378     404.289     370.541
  C     -763.167     403.051     369.976
  N     -763.924     402.027     370.448
  N     -762.297     402.820     369.029
  C     -761.655     403.938     368.613
  C     -761.775     405.223     369.090
  C     -762.703     405.449     370.181
  O     -762.876     406.510     370.779
  N     -760.934     406.084     368.428
  C     -760.335     405.320     367.529
  N     -760.741     404.017     367.602
  O     -755.959     406.290     365.926
  O     -756.631     407.165     363.626
  H     -760.000     400.950     364.993
  H     -755.185     406.060     365.375
  H     -764.038     404.400     371.290
  H     -759.598     405.668     366.817
  H     -760.295     402.015     367.511
  H     -761.987     402.929     365.463
  H     -764.783     402.194     370.949
  H     -760.356     404.493     364.607
  H     -763.820     401.137     369.980
  H     -758.301     402.221     364.751
  H     -756.753     404.103     365.319
  H     -757.415     404.174     363.669
  P     -761.152     403.753     362.195
  C     -763.708     404.199     362.136
  O     -762.667     403.319     362.528
  O     -760.861     403.037     360.791
  O     -760.907     405.220     362.111
  H     -760.318     403.627     360.229
  H     -764.652     403.783     362.420
  H     -763.682     404.332     361.075
  H     -763.575     405.145     362.618

 6  7  8  9  10  11  12  13  14  15  26  29  33  34 0
 6-311+G(2d,p)
 ****
 36  38  39  40  41 0
 6-311+G(2d,p)
 ****
 1  2  3  4  5  16  17  18  19  20  21  22  23  24  25 0
 3-21G
 ****
 27  28  30  31  32  35  37  42  43  44  45  46  47 0
 3-21G
 ****
 48  49 0
 3-21G
 ****


