%nproc=1
%NoSave
%Mem=1900MB
#P OB98/GEN NMR

erre ene a

0 1
  C     -150.825     445.543     -43.216
  O     -150.371     446.720     -43.859
  P     -151.161     447.198     -45.176
  C     -150.891     446.706     -47.711
  O     -150.643     446.276     -46.380
  C     -151.101     445.516     -48.652
  O     -152.450     445.022     -48.499
  C     -150.880     445.838     -50.131
  O     -150.263     444.705     -50.750
  C     -152.288     445.988     -50.677
  O     -152.346     445.741     -52.077
  C     -153.049     444.969     -49.809
  N     -154.484     445.249     -49.756
  C     -155.270     444.719     -50.782
  O     -154.742     444.122     -51.714
  N     -156.625     444.935     -50.755
  C     -157.136     445.697     -49.834
  N     -158.491     445.869     -49.848
  C     -156.329     446.378     -48.807
  C     -155.020     446.094     -48.815
  O     -150.506     448.624     -45.488
  O     -152.646     447.282     -45.011
  H     -151.729     446.362     -52.523
  H     -151.156     449.224     -45.895
  H     -156.793     447.035     -48.089
  H     -154.350     446.527     -48.081
  H     -152.912     443.955     -50.201
  H     -152.656     447.006     -50.487
  H     -150.256     446.729     -50.286
  H     -150.421     444.713     -48.335
  H     -159.016     445.411     -50.570
  H     -150.037     447.278     -48.073
  H     -158.970     446.452     -49.174
  H     -151.770     447.364     -47.722
  P     -149.269     444.967     -51.976
  C     -149.631     445.308     -54.496
  O     -150.227     445.334     -53.212
  O     -148.811     443.478     -52.339
  O     -148.082     445.852     -51.750
  H     -148.146     443.500     -53.057
  H     -150.419     445.436     -55.247
  H     -149.128     444.361     -54.669
  H     -148.918     446.137     -54.589
  H     -150.213     445.345     -42.361
  H     -150.765     444.719     -43.896
  H     -151.840     445.676     -42.905

 3  4  5  6  7  8  9  10  11  12  13  21  23  27  28  29  30  32 0
 6-311+G(2d,p)
 ****
 34  35 0
 6-311+G(2d,p)
 ****
 1  2  14  15  16  17  18  19  20  22  24  25  26 0
 3-21G
 ****
 31  33  36  37  38  39  40  41  42  43  44  45  46 0
 3-21G
 ****


