%nproc=1
%NoSave
%Mem=1900MB
#P OB98/GEN NMR

erre ene a

0 1
  C       89.287       1.644     -32.816
  O       87.965       1.376     -33.238
  H       89.500       1.114     -31.884
  H       89.981       1.294     -33.585
  H       89.428       2.719     -32.673
  P       86.787       1.783     -32.226
  C       85.770       4.085     -31.568
  O       86.890       3.378     -32.083
  C       86.248       5.370     -30.902
  O       87.096       5.058     -29.773
  C       87.083       6.261     -31.814
  O       86.288       7.065     -32.667
  C       87.818       7.106     -30.787
  O       86.935       8.113     -30.263
  C       88.143       6.065     -29.705
  N       92.137       3.929     -27.319
  C       90.971       4.430     -26.855
  N       89.950       4.961     -27.557
  C       90.214       4.937     -28.872
  C       91.355       4.454     -29.493
  C       92.354       3.933     -28.655
  N       93.557       3.451     -29.121
  N       91.271       4.621     -30.862
  C       90.094       5.178     -31.061
  N       89.432       5.419     -29.887
  O       87.307       1.260     -30.806
  O       85.427       1.279     -32.573
  H       86.188       7.646     -29.843
  H       86.577       1.254     -30.158
  H       90.844       4.402     -25.777
  H       89.682       5.435     -32.028
  H       88.132       6.490     -28.695
  H       88.683       7.625     -31.209
  H       87.815       5.678     -32.385
  H       85.371       5.908     -30.521
  H       85.259       3.456     -30.831
  H       94.264       3.239     -28.435
  H       93.788       3.584     -30.094
  H       85.080       4.317     -32.384
  P       86.899       7.455     -34.101
  C       87.450       6.065     -36.225
  O       87.305       6.073     -34.810
  O       88.310       8.104     -33.723
  O       86.048       8.377     -34.910
  H       88.555       8.801     -34.361
  H       87.721       5.082     -36.550
  H       88.214       6.758     -36.509
  H       86.524       6.349     -36.680

 6  7  8  9  10  11  12  13  14  15  25  28  32  33  34  35 0
 6-311+G(2d,p)
 ****
 36  39  40 0
 6-311+G(2d,p)
 ****
 1  2  3  4  5  16  17  18  19  20  21  22  23  24 0
 3-21G
 ****
 26  27  29  30  31  37  38  41  42  43  44  45  46  47 0
 3-21G
 ****
 48 0
 3-21G
 ****


