%nproc=1
%NoSave
%Mem=1900MB
#P OB98/GEN NMR

erre ene a

0 1
  C     -256.356     326.363     159.134
  O     -256.214     327.610     159.778
  H     -255.466     326.175     158.526
  H     -257.228     326.379     158.473
  H     -256.457     325.556     159.866
  P     -257.336     328.020     160.849
  C     -255.973     330.092     161.624
  O     -257.192     329.604     161.080
  C     -256.247     331.220     162.618
  O     -256.630     332.411     161.880
  C     -257.366     330.903     163.613
  O     -257.009     331.447     164.889
  C     -258.564     331.656     163.062
  O     -259.524     331.975     164.069
  C     -257.891     332.871     162.408
  N     -258.734     333.452     161.364
  C     -259.492     334.570     161.720
  O     -259.434     335.018     162.870
  N     -260.334     335.124     160.794
  C     -260.480     334.557     159.637
  N     -261.352     335.137     158.770
  C     -259.752     333.335     159.238
  C     -258.898     332.844     160.141
  O     -256.787     327.400     162.218
  O     -258.720     327.564     160.532
  H     -260.159     332.622     163.694
  H     -257.520     327.132     162.804
  H     -259.923     332.884     158.274
  H     -258.329     331.948     159.941
  H     -257.676     333.643     163.156
  H     -259.062     331.042     162.301
  H     -257.565     329.832     163.717
  H     -255.314     331.458     163.142
  H     -261.845     335.965     159.085
  H     -255.350     330.478     160.809
  H     -261.577     334.759     157.861
  H     -255.439     329.270     162.114
  P     -256.480     330.407     165.994
  C     -254.793     332.089     167.032
  O     -255.918     331.244     167.238
  O     -255.166     329.793     165.318
  O     -257.472     329.345     166.338
  H     -255.328     328.870     165.047
  H     -254.540     332.576     167.950
  H     -255.030     332.824     166.292
  H     -253.962     331.502     166.699

 6  7  8  9  10  11  12  13  14  15  16  26  30  31  32  33  35 0
 6-311+G(2d,p)
 ****
 37  38 0
 6-311+G(2d,p)
 ****
 1  2  3  4  5  17  18  19  20  21  22  23  24  25 0
 3-21G
 ****
 27  28  29  34  36  39  40  41  42  43  44  45  46 0
 3-21G
 ****


