%nproc=1
%NoSave
%Mem=1900MB
#P OB98/GEN NMR

erre ene a

0 1
  C      347.288    -156.819    -277.441
  O      347.848    -158.071    -277.852
  P      348.204    -158.267    -279.406
  C      346.878    -158.450    -281.616
  O      346.851    -158.615    -280.202
  C      345.522    -158.835    -282.240
  O      345.453    -160.283    -282.348
  C      344.292    -158.424    -281.417
  O      343.724    -157.137    -281.643
  C      343.260    -159.443    -281.893
  O      342.663    -159.004    -283.129
  C      344.086    -160.704    -282.147
  N      341.064    -164.021    -279.675
  C      340.844    -163.216    -280.737
  N      341.703    -162.362    -281.333
  C      342.902    -162.396    -280.733
  C      343.278    -163.165    -279.639
  C      342.293    -164.008    -279.100
  N      342.513    -164.820    -278.002
  N      344.593    -162.922    -279.296
  C      344.999    -162.007    -280.156
  N      344.024    -161.666    -281.054
  O      349.366    -159.156    -279.700
  O      348.500    -156.765    -279.889
  H      341.909    -159.600    -283.299
  H      349.235    -156.775    -280.535
  H      339.844    -163.260    -281.170
  H      345.987    -161.565    -280.168
  H      343.772    -161.237    -283.056
  H      342.443    -159.575    -281.179
  H      344.480    -158.559    -280.338
  H      345.454    -158.413    -283.250
  H      347.667    -159.069    -282.044
  H      341.736    -165.363    -277.658
  H      343.400    -164.777    -277.531
  H      347.152    -157.406    -281.821
  P      343.946    -155.938    -280.607
  C      342.557    -155.093    -278.546
  O      342.810    -156.122    -279.486
  O      343.994    -154.572    -281.216
  O      345.284    -156.371    -279.838
  H      345.180    -157.152    -279.272
  H      341.626    -155.318    -278.019
  H      342.457    -154.124    -279.043
  H      343.379    -155.057    -277.818
  H      347.106    -156.839    -276.387
  H      346.367    -156.653    -277.959
  H      347.973    -156.030    -277.670

 3  4  5  6  7  8  9  10  11  12  22  25  29  30  31  32 0
 6-311+G(2d,p)
 ****
 33  36  37 0
 6-311+G(2d,p)
 ****
 1  2  13  14  15  16  17  18  19  20  21  23  24  26 0
 3-21G
 ****
 27  28  34  35  38  39  40  41  42  43  44  45  46  47  48 0
 3-21G
 ****


