%nproc=1
%NoSave
%Mem=1900MB
#P OB98/GEN NMR

erre ene a

0 1
  C     -127.191    -153.488     -61.483
  O     -125.905    -153.877     -61.042
  H     -127.481    -154.127     -62.322
  H     -127.182    -152.450     -61.823
  H     -127.924    -153.611     -60.681
  P     -125.253    -153.080     -59.815
  C     -124.545    -155.298     -58.697
  O     -125.283    -154.089     -58.569
  C     -125.472    -156.497     -58.528
  O     -126.511    -156.474     -59.524
  C     -124.768    -157.847     -58.663
  O     -124.115    -158.189     -57.449
  C     -125.956    -158.743     -58.978
  O     -126.698    -159.009     -57.773
  C     -126.776    -157.849     -59.924
  N     -126.780    -160.981     -63.910
  C     -127.144    -161.215     -62.597
  N     -127.521    -162.476     -62.298
  N     -127.118    -160.301     -61.662
  C     -126.653    -159.107     -62.094
  C     -126.247    -158.758     -63.361
  C     -126.331    -159.762     -64.401
  O     -126.036    -159.592     -65.581
  N     -125.773    -157.472     -63.404
  C     -125.930    -157.031     -62.172
  N     -126.446    -157.990     -61.332
  O     -125.836    -151.732     -59.514
  O     -123.700    -152.996     -60.186
  H     -126.054    -159.331     -57.115
  H     -123.495    -152.171     -60.664
  H     -126.803    -161.731     -64.580
  H     -125.688    -156.030     -61.834
  H     -127.855    -158.019     -59.824
  H     -125.665    -159.706     -59.401
  H     -127.288    -163.260     -62.895
  H     -124.084    -157.864     -59.516
  H     -127.743    -162.680     -61.333
  H     -125.962    -156.406     -57.549
  H     -123.772    -155.297     -57.923
  H     -124.059    -155.344     -59.679
  P     -122.528    -158.443     -57.406
  C     -121.644    -156.882     -55.547
  O     -121.901    -157.046     -56.936
  O     -121.949    -158.993     -58.666
  O     -122.306    -159.372     -56.129
  H     -122.378    -160.339     -56.329
  H     -121.229    -155.911     -55.373
  H     -120.951    -157.629     -55.222
  H     -122.559    -156.982     -55.001

 6  7  8  9  10  11  12  13  14  15  26  29  33  34 0
 6-311+G(2d,p)
 ****
 36  38  39  40  41 0
 6-311+G(2d,p)
 ****
 1  2  3  4  5  16  17  18  19  20  21  22  23  24  25 0
 3-21G
 ****
 27  28  30  31  32  35  37  42  43  44  45  46  47 0
 3-21G
 ****
 48  49 0
 3-21G
 ****


