%nproc=1
%NoSave
%Mem=1900MB
#P OB98/GEN NMR

erre ene a

0 1
  C       88.195     106.732     175.515
  O       87.093     107.621     175.520
  P       86.273     107.888     174.171
  C       87.285     110.262     173.840
  O       86.127     109.476     174.020
  C       86.977     111.754     174.023
  O       86.159     112.180     172.907
  C       86.179     112.093     175.278
  O       86.322     113.490     175.545
  C       84.763     111.804     174.834
  O       83.796     112.457     175.651
  C       84.782     112.244     173.347
  N       83.936     111.372     172.514
  C       82.754     111.921     172.025
  O       82.442     113.098     172.197
  N       81.902     111.050     171.404
  C       82.101     109.707     171.277
  O       81.215     108.906     171.005
  C       83.458     109.235     171.594
  C       84.295     110.071     172.214
  O       84.797     107.404     174.553
  O       86.796     107.182     172.968
  H       82.910     112.180     175.320
  H       84.653     106.489     174.245
  H       80.985     111.417     171.179
  H       83.707     108.207     171.367
  H       85.285     109.734     172.508
  H       84.423     113.274     173.231
  H       84.579     110.725     174.902
  H       86.458     111.509     176.160
  H       87.912     112.324     173.994
  H       87.698     110.073     172.844
  H       88.059     109.968     174.558
  P       87.311     113.931     176.728
  C       85.797     115.247     178.331
  O       86.749     115.324     177.289
  O       88.767     113.908     176.407
  O       86.944     112.904     177.904
  H       87.669     112.879     178.555
  H       85.880     116.143     178.951
  H       85.957     114.366     178.956
  H       84.794     115.207     177.898
  H       88.616     106.680     176.497
  H       88.935     107.086     174.828
  H       87.867     105.759     175.215

 3  4  5  6  7  8  9  10  11  12  13  23  28  29  30  31  32 0
 6-311+G(2d,p)
 ****
 33  34 0
 6-311+G(2d,p)
 ****
 1  2  14  15  16  17  18  19  20  21  22  24  25  26  27 0
 3-21G
 ****
 35  36  37  38  39  40  41  42  43  44  45 0
 3-21G
 ****


