%nproc=1
%NoSave
%Mem=1900MB
#P OB98/GEN NMR

erre ene a

0 1
  C      102.309     -21.902     -15.405
  O      103.519     -22.132     -16.089
  H      101.491     -21.919     -16.131
  H      102.321     -20.920     -14.926
  H      102.132     -22.681     -14.659
  P      104.900     -22.118     -15.270
  C      104.698     -22.563     -12.750
  O      104.678     -23.143     -14.048
  C      104.420     -23.613     -11.674
  O      103.164     -24.286     -11.965
  C      105.508     -24.692     -11.569
  O      105.858     -24.892     -10.198
  C      104.827     -25.940     -12.108
  O      105.407     -27.147     -11.621
  C      103.377     -25.681     -11.688
  N      102.438     -26.539     -12.400
  C      101.950     -27.640     -11.691
  O      102.308     -27.838     -10.529
  N      101.112     -28.517     -12.327
  C      100.825     -28.339     -13.579
  N      100.013     -29.262     -14.159
  C      101.342     -27.206     -14.374
  C      102.132     -26.350     -13.726
  O      105.378     -20.761     -14.877
  O      105.937     -22.903     -16.202
  H      105.182     -27.239     -10.669
  H      106.853     -22.638     -15.953
  H      101.077     -27.105     -15.415
  H      102.560     -25.488     -14.227
  H      103.246     -25.838     -10.609
  H      104.902     -25.948     -13.203
  H      106.408     -24.452     -12.134
  H      104.277     -23.098     -10.716
  H       99.687     -30.027     -13.579
  H      103.945     -21.767     -12.712
  H       99.741     -29.242     -15.129
  H      105.689     -22.131     -12.580
  P      106.857     -23.812      -9.557
  C      106.632     -21.889      -7.829
  O      106.101     -23.106      -8.330
  O      106.932     -22.670     -10.675
  O      108.208     -24.363      -9.243
  H      107.814     -22.672     -11.092
  H      106.025     -21.542      -7.019
  H      106.640     -21.156      -8.608
  H      107.631     -22.052      -7.482

 6  7  8  9  10  11  12  13  14  15  16  26  30  31  32  33  35 0
 6-311+G(2d,p)
 ****
 37  38 0
 6-311+G(2d,p)
 ****
 1  2  3  4  5  17  18  19  20  21  22  23  24  25 0
 3-21G
 ****
 27  28  29  34  36  39  40  41  42  43  44  45  46 0
 3-21G
 ****


