%nproc=1
%NoSave
%Mem=1900MB
#P OB98/GEN NMR

erre ene a

0 1
  C      -61.696    -352.315     878.583
  O      -62.157    -353.096     877.502
  H      -61.663    -351.265     878.275
  H      -60.685    -352.618     878.882
  H      -62.369    -352.409     879.439
  P      -62.143    -354.691     877.655
  C      -62.308    -354.822     875.071
  O      -61.628    -355.255     876.247
  C      -61.505    -355.196     873.828
  O      -60.295    -354.412     873.757
  C      -61.058    -356.657     873.823
  O      -62.131    -357.510     873.504
  C      -59.929    -356.603     872.813
  O      -60.436    -356.614     871.471
  C      -59.271    -355.233     873.142
  N      -58.111    -355.362     874.003
  C      -56.886    -354.977     873.443
  O      -56.835    -354.557     872.291
  N      -55.752    -355.105     874.214
  C      -55.826    -355.561     875.424
  N      -54.666    -355.662     876.125
  C      -57.096    -355.961     876.062
  C      -58.184    -355.849     875.296
  O      -63.404    -355.337     878.154
  O      -60.900    -354.962     878.631
  H      -60.960    -357.442     871.386
  H      -61.195    -354.952     879.569
  H      -57.115    -356.325     877.072
  H      -59.161    -356.111     875.686
  H      -58.966    -354.727     872.220
  H      -59.247    -357.453     872.918
  H      -60.627    -356.916     874.801
  H      -62.109    -354.966     872.944
  H      -53.802    -355.381     875.646
  H      -62.408    -353.728     875.141
  H      -54.614    -355.912     877.106
  H      -63.316    -355.255     875.019
  P      -62.715    -358.541     874.597
  C      -64.050    -359.892     872.847
  O      -62.982    -359.911     873.782
  O      -63.860    -358.036     875.394
  O      -61.418    -358.894     875.476
  H      -61.181    -358.148     876.076
  H      -64.127    -360.849     872.374
  H      -63.863    -359.142     872.107
  H      -64.965    -359.670     873.355

 6  7  8  9  10  11  12  13  14  15  16  26  30  31  32  33  35 0
 6-311+G(2d,p)
 ****
 37  38 0
 6-311+G(2d,p)
 ****
 1  2  3  4  5  17  18  19  20  21  22  23  24  25 0
 3-21G
 ****
 27  28  29  34  36  39  40  41  42  43  44  45  46 0
 3-21G
 ****


