%nproc=1
%NoSave
%Mem=1900MB
#P OB98/GEN NMR

erre ene a

0 1
  C      -97.799     -22.825      -0.423
  O      -98.012     -24.145       0.091
  P      -99.449     -24.857       0.033
  C      -99.495     -25.333      -2.490
  O      -99.511     -25.906      -1.186
  C      -98.777     -26.210      -3.526
  O      -97.353     -26.297      -3.238
  C      -99.297     -27.651      -3.626
  O      -99.108     -28.043      -4.987
  C      -98.334     -28.399      -2.715
  O      -98.310     -29.800      -2.945
  C      -97.026     -27.687      -3.050
  N      -94.037     -31.019      -0.555
  C      -94.783     -31.144      -1.675
  N      -95.520     -30.203      -2.299
  C      -95.410     -29.016      -1.679
  C      -94.676     -28.730      -0.535
  C      -93.976     -29.804       0.045
  N      -93.251     -29.694       1.210
  N      -94.830     -27.406      -0.172
  C      -95.646     -26.902      -1.078
  N      -96.022     -27.837      -2.014
  O     -100.604     -23.908       0.078
  O      -99.474     -25.800       1.331
  H      -97.476     -30.156      -2.583
  H     -100.330     -25.696       1.787
  H      -94.793     -32.133      -2.127
  H      -96.015     -25.887      -1.095
  H      -96.597     -28.061      -3.990
  H      -98.631     -28.237      -1.670
  H     -100.340     -27.761      -3.328
  H      -98.866     -25.706      -4.499
  H      -98.998     -24.353      -2.434
  H      -92.858     -30.535       1.597
  H      -93.295     -28.831       1.739
  H     -100.529     -25.161      -2.812
  P     -100.349     -28.283      -5.977
  C     -100.842     -25.971      -6.959
  O     -100.199     -27.215      -7.165
  O     -101.687     -28.299      -5.311
  O     -100.029     -29.680      -6.691
  H     -100.855     -30.047      -7.070
  H     -101.921     -26.080      -7.112
  H     -100.449     -25.245      -7.673
  H     -100.656     -25.597      -5.944
  H      -96.775     -22.548      -0.282
  H      -98.430     -22.134       0.096
  H      -98.033     -22.807      -1.467

 3  4  5  6  7  8  9  10  11  12  22  25  29  30  31  32 0
 6-311+G(2d,p)
 ****
 33  36  37 0
 6-311+G(2d,p)
 ****
 1  2  13  14  15  16  17  18  19  20  21  23  24  26 0
 3-21G
 ****
 27  28  34  35  38  39  40  41  42  43  44  45  46  47  48 0
 3-21G
 ****


