%nproc=1
%NoSave
%Mem=1900MB
#P OB98/GEN NMR

erre ene a

0 1
  C     -141.905     231.987    -317.368
  O     -141.305     231.258    -316.320
  P     -141.620     229.707    -316.103
  C     -143.015     230.202    -314.004
  O     -141.925     229.468    -314.545
  C     -143.001     230.163    -312.478
  O     -143.325     228.829    -312.020
  C     -141.665     230.562    -311.840
  O     -141.953     231.318    -310.664
  C     -141.044     229.229    -311.483
  O     -140.058     229.349    -310.464
  C     -142.299     228.435    -311.094
  N     -142.072     226.998    -311.140
  C     -141.202     226.474    -310.173
  O     -140.572     227.224    -309.428
  N     -141.062     225.104    -310.094
  C     -141.603     224.353    -311.010
  N     -141.495     222.998    -310.841
  C     -142.313     224.895    -312.176
  C     -142.549     226.199    -312.158
  O     -140.610     228.766    -316.686
  O     -143.054     229.492    -316.788
  H     -142.999     228.756    -317.432
  H     -139.806     228.443    -310.164
  H     -142.634     224.240    -312.975
  H     -143.104     226.689    -312.951
  H     -142.635     228.710    -310.094
  H     -140.569     228.790    -312.368
  H     -141.045     231.172    -312.513
  H     -143.800     230.833    -312.119
  H     -141.023     222.667    -310.019
  H     -143.943     229.754    -314.373
  H     -142.128     222.353    -311.314
  H     -142.986     231.239    -314.374
  P     -141.010     232.579    -310.310
  C     -139.973     231.235    -308.343
  O     -140.575     232.440    -308.766
  O     -142.073     233.782    -310.247
  O     -139.939     232.906    -311.296
  H     -141.621     234.621    -310.431
  H     -139.807     231.287    -307.267
  H     -139.006     231.092    -308.841
  H     -140.629     230.382    -308.549
  H     -141.564     233.001    -317.338
  H     -142.969     231.965    -317.254
  H     -141.638     231.548    -318.306

 3  4  5  6  7  8  9  10  11  12  13  24  27  28  29  30  32 0
 6-311+G(2d,p)
 ****
 34  35 0
 6-311+G(2d,p)
 ****
 1  2  14  15  16  17  18  19  20  21  22  23  25  26 0
 3-21G
 ****
 31  33  36  37  38  39  40  41  42  43  44  45  46 0
 3-21G
 ****


