%nproc=1
%NoSave
%Mem=1900MB
#P OB98/GEN NMR

erre ene a

0 1
  C     -550.487    -309.136     917.061
  O     -550.503    -307.994     917.901
  H     -550.652    -308.809     916.026
  H     -551.276    -309.833     917.346
  H     -549.515    -309.628     917.125
  P     -550.382    -308.272     919.484
  C     -552.989    -308.180     919.695
  O     -551.728    -307.624     920.083
  C     -553.920    -308.213     920.895
  O     -553.394    -309.075     921.930
  C     -554.143    -306.857     921.578
  O     -555.048    -306.016     920.866
  C     -554.723    -307.326     922.907
  O     -556.086    -307.750     922.713
  C     -553.801    -308.519     923.222
  N     -552.633    -308.144     924.019
  C     -552.850    -307.809     925.355
  O     -553.991    -307.830     925.828
  N     -551.792    -307.423     926.129
  C     -550.586    -307.398     925.619
  N     -549.577    -307.007     926.444
  C     -550.293    -307.768     924.220
  C     -551.355    -308.133     923.491
  O     -549.255    -307.231     919.954
  O     -550.128    -309.684     919.879
  H     -556.571    -306.975     922.375
  H     -549.203    -307.213     920.942
  H     -549.287    -307.726     923.847
  H     -551.214    -308.416     922.449
  H     -554.347    -309.315     923.762
  H     -554.735    -306.542     923.659
  H     -553.196    -306.342     921.754
  H     -554.882    -308.658     920.556
  H     -549.807    -306.714     927.383
  H     -552.808    -309.197     919.329
  H     -548.636    -306.811     926.106
  H     -553.437    -307.575     918.900
  P     -554.408    -304.865     919.948
  C     -554.295    -302.872     921.625
  O     -554.960    -303.464     920.514
  O     -555.178    -305.038     918.566
  O     -552.926    -304.945     919.784
  H     -554.589    -304.823     917.812
  H     -554.777    -301.952     921.880
  H     -553.274    -302.680     921.369
  H     -554.334    -303.539     922.461

 6  7  8  9  10  11  12  13  14  15  16  26  30  31  32  33  35 0
 6-311+G(2d,p)
 ****
 37  38 0
 6-311+G(2d,p)
 ****
 1  2  3  4  5  17  18  19  20  21  22  23  24  25 0
 3-21G
 ****
 27  28  29  34  36  39  40  41  42  43  44  45  46 0
 3-21G
 ****


