%nproc=1
%NoSave
%Mem=1900MB
#P OB98/GEN NMR

erre ene a

0 1
  C      259.260    -848.651       7.925
  O      260.264    -847.688       7.674
  H      259.594    -849.636       7.593
  H      259.078    -848.693       9.007
  H      258.332    -848.374       7.423
  P      260.690    -847.497       6.132
  C      261.580    -845.097       6.548
  O      261.881    -846.412       6.109
  C      262.849    -844.284       6.693
  O      263.529    -844.688       7.913
  C      263.850    -844.449       5.525
  O      264.272    -843.168       5.024
  C      265.043    -845.152       6.152
  O      266.283    -844.758       5.579
  C      264.934    -844.753       7.612
  N      269.039    -845.470      10.553
  C      268.444    -844.351      10.110
  N      267.300    -844.209       9.408
  C      266.740    -845.418       9.211
  C      267.203    -846.651       9.612
  C      268.437    -846.656      10.303
  N      269.061    -847.815      10.695
  N      266.357    -847.676       9.200
  C      265.417    -847.066       8.527
  N      265.596    -845.703       8.487
  O      259.446    -846.701       5.505
  O      260.953    -848.763       5.402
  H      266.207    -843.817       5.327
  H      259.050    -847.250       4.801
  H      268.963    -843.415      10.334
  H      264.592    -847.545       8.011
  H      265.355    -843.760       7.796
  H      264.937    -846.244       6.027
  H      263.424    -845.042       4.699
  H      262.589    -843.221       6.811
  H      261.072    -845.148       7.524
  H      270.002    -847.732      11.080
  H      268.690    -848.706      10.421
  H      260.896    -844.630       5.826
  P      263.747    -842.769       3.563
  C      262.704    -840.586       4.517
  O      263.549    -841.180       3.536
  O      262.252    -843.350       3.543
  O      264.567    -843.340       2.438
  H      262.138    -843.960       2.784
  H      262.674    -839.527       4.368
  H      263.087    -840.798       5.493
  H      261.716    -840.987       4.427

 6  7  8  9  10  11  12  13  14  15  25  28  32  33  34  35 0
 6-311+G(2d,p)
 ****
 36  39  40 0
 6-311+G(2d,p)
 ****
 1  2  3  4  5  16  17  18  19  20  21  22  23  24 0
 3-21G
 ****
 26  27  29  30  31  37  38  41  42  43  44  45  46  47  48 0
 3-21G
 ****


