%nproc=1
%NoSave
%Mem=1900MB
#P OB98/GEN NMR

erre ene a

0 1
  C      861.938     567.385    -655.698
  O      860.979     568.188    -656.356
  H      862.386     566.706    -656.428
  H      861.453     566.792    -654.919
  H      862.718     568.010    -655.264
  P      860.230     569.288    -655.462
  C      859.489     570.755    -657.490
  O      859.090     569.927    -656.398
  C      859.650     569.917    -658.763
  O      858.385     569.246    -659.046
  C      860.022     570.752    -660.011
  O      860.811     569.927    -660.882
  C      858.653     570.990    -660.625
  O      858.793     571.402    -661.970
  C      858.026     569.614    -660.393
  N      854.216     569.851    -663.799
  C      855.566     569.760    -663.932
  N      856.503     569.698    -662.982
  C      855.947     569.692    -661.760
  C      854.601     569.763    -661.453
  C      853.716     569.850    -662.531
  N      852.336     569.955    -662.393
  N      854.410     569.760    -660.086
  C      855.630     569.668    -659.567
  N      856.588     569.627    -660.551
  O      861.317     570.451    -655.328
  O      859.744     568.811    -654.130
  H      859.604     571.034    -662.369
  H      861.841     570.333    -654.519
  H      855.917     569.755    -664.971
  H      855.877     569.649    -658.519
  H      858.425     568.848    -661.071
  H      858.109     571.767    -660.096
  H      860.564     571.658    -659.770
  H      860.393     569.120    -658.572
  H      860.443     571.241    -657.238
  H      858.717     571.517    -657.651
  H      851.783     570.035    -663.215
  H      851.953     570.005    -661.449
  P      862.394     570.169    -660.967
  C      862.937     567.703    -661.660
  O      863.072     569.090    -661.952
  O      862.890     569.676    -659.525
  O      862.805     571.600    -661.193
  H      863.504     570.320    -659.157
  H      863.443     567.130    -662.409
  H      861.900     567.440    -661.650
  H      863.367     567.497    -660.702

 6  7  8  9  10  11  12  13  14  15  25  28  32  33  34  35 0
 6-311+G(2d,p)
 ****
 36  37  40 0
 6-311+G(2d,p)
 ****
 1  2  3  4  5  16  17  18  19  20  21  22  23  24 0
 3-21G
 ****
 26  27  29  30  31  38  39 41  42  43  44  45  46  47  48 0
 3-21G
 ****


