%nproc=1
%NoSave
%Mem=1900MB
#P OB98/GEN NMR

erre ene a

0 1
  C      157.182     -98.582    -854.352
  O      158.141     -97.558    -854.512
  H      157.656     -99.441    -853.873
  H      156.795     -98.895    -855.328
  H      156.358     -98.230    -853.721
  P      157.665     -96.245    -855.310
  C      158.491     -93.771    -855.184
  O      158.444     -95.051    -854.566
  C      159.865     -93.145    -854.982
  O      160.080     -92.828    -853.590
  C      161.038     -94.043    -855.370
  O      161.251     -94.110    -856.775
  C      162.168     -93.320    -854.660
  O      162.509     -92.123    -855.378
  C      161.499     -92.994    -853.304
  N      161.705     -94.036    -852.297
  C      162.571     -93.725    -851.241
  O      163.128     -92.627    -851.186
  N      162.821     -94.688    -850.286
  C      162.236     -95.842    -850.368
  N      162.526     -96.752    -849.395
  C      161.305     -96.208    -851.454
  C      161.085     -95.270    -852.375
  O      156.152     -96.039    -854.816
  O      157.831     -96.280    -856.791
  H      161.822     -91.466    -855.170
  H      155.813     -95.170    -855.138
  H      160.862     -97.189    -851.478
  H      160.411     -95.466    -853.196
  H      161.865     -92.042    -852.906
  H      163.081     -93.918    -854.581
  H      160.934     -95.048    -854.951
  H      159.884     -92.198    -855.540
  H      163.214     -96.497    -848.700
  H      157.715     -93.139    -854.730
  H      162.244     -97.724    -849.449
  H      158.289     -93.863    -856.258
  P      161.542     -95.558    -857.407
  C      161.417     -96.557    -859.807
  O      161.027     -95.519    -858.921
  O      160.470     -96.494    -856.677
  O      162.943     -96.058    -857.219
  H      160.824     -97.392    -856.532
  H      160.990     -96.381    -860.772
  H      161.071     -97.497    -859.430
  H      162.484     -96.576    -859.887

 6  7  8  9  10  11  12  13  14  15  16  26  30  31  32  33  35 0
 6-311+G(2d,p)
 ****
 37  38 0
 6-311+G(2d,p)
 ****
 1  2  3  4  5  17  18  19  20  21  22  23  24  25 0
 3-21G
 ****
 27  28  29  34  36  39  40  41  42  43  44  45  46 0
 3-21G
 ****


