%nproc=1
%NoSave
%Mem=1900MB
#P OB98/GEN NMR

erre ene a

0 1
  C      250.576     257.735     333.627
  O      249.322     258.138     334.138
  H      250.845     256.749     334.023
  H      250.510     257.669     332.538
  H      251.347     258.464     333.894
  P      249.198     258.261     335.736
  C      248.604     256.562     337.619
  O      248.944     256.761     336.252
  C      248.663     255.074     337.943
  O      247.599     254.372     337.254
  C      249.953     254.399     337.497
  O      251.011     254.588     338.429
  C      249.516     252.945     337.448
  O      249.448     252.412     338.785
  C      248.106     253.068     336.852
  N      249.620     250.344     332.792
  C      249.752     250.133     334.118
  N      249.306     250.896     335.136
  C      248.644     251.967     334.668
  C      248.423     252.310     333.345
  C      248.948     251.443     332.375
  N      248.844     251.671     331.023
  N      247.725     253.501     333.261
  C      247.511     253.855     334.513
  N      248.078     252.980     335.400
  O      247.774     258.960     335.956
  O      250.313     258.971     336.427
  H      249.423     251.437     338.701
  H      247.694     259.286     336.874
  H      250.296     249.234     334.404
  H      246.968     254.740     334.827
  H      247.418     252.309     337.237
  H      250.206     252.312     336.886
  H      250.251     254.719     336.491
  H      248.501     254.947     339.021
  H      247.588     256.935     337.791
  H      249.381     251.073     330.411
  H      248.475     252.552     330.707
  H      249.302     257.113     338.250
  P      252.406     253.852     338.122
  C      253.515     251.620     338.877
  O      252.334     252.422     338.857
  O      253.448     254.674     339.018
  O      252.792     253.826     336.684
  H      254.323     254.702     338.595
  H      253.316     250.706     339.396
  H      254.298     252.151     339.377
  H      253.815     251.402     337.873

 6  7  8  9  10  11  12  13  14  15  25  28  32  33  34  35 0
 6-311+G(2d,p)
 ****
 36  39  40 0
 6-311+G(2d,p)
 ****
 1  2  3  4  5  16  17  18  19  20  21  22  23  24 0
 3-21G
 ****
 26  27  29  30  31  37  38  41  42  43  44  45  46  47 0
 3-21G
 ****
 48 0
 3-21G
 ****


