%nproc=1
%NoSave
%Mem=1900MB
#P OB98/GEN NMR

erre ene a

0 1
  C      -28.102      12.636     213.966
  O      -28.012      13.903     214.584
  H      -27.467      12.632     213.076
  H      -29.134      12.442     213.661
  H      -27.760      11.850     214.646
  P      -28.677      14.063     216.034
  C      -31.021      13.587     217.050
  O      -30.214      13.619     215.883
  C      -32.474      13.295     216.671
  O      -32.966      14.388     215.846
  C      -32.662      11.997     215.874
  O      -33.900      11.398     216.269
  C      -32.779      12.488     214.442
  O      -33.459      11.588     213.577
  C      -33.528      13.808     214.651
  N      -33.396      14.716     213.513
  C      -34.538      14.959     212.754
  O      -35.660      14.537     213.019
  N      -34.348      15.732     211.637
  C      -33.162      16.249     211.206
  O      -33.054      16.917     210.184
  C      -31.991      15.950     212.043
  C      -32.161      15.206     213.138
  O      -28.765      15.651     216.215
  O      -27.944      13.399     217.152
  H      -27.951      15.993     216.630
  H      -32.801      10.938     213.256
  H      -35.163      15.918     211.076
  H      -31.032      16.334     211.726
  H      -31.314      14.949     213.769
  H      -34.590      13.617     214.849
  H      -31.781      12.667     214.026
  H      -31.848      11.274     215.995
  H      -33.080      13.285     217.585
  H      -30.973      14.559     217.552
  H      -30.642      12.817     217.731
  P      -33.853       9.889     216.810
  C      -33.277       7.621     215.628
  O      -33.152       9.038     215.647
  O      -35.395       9.482     216.730
  O      -33.235       9.775     218.163
  H      -35.856       9.881     215.972
  H      -32.748       7.228     214.786
  H      -34.311       7.355     215.555
  H      -32.867       7.215     216.529

 6  7  8  9  10  11  12  13  14  15  16  27  31  32  33  34  35 0
 6-311+G(2d,p)
 ****
 36  37 0
 6-311+G(2d,p)
 ****
 1  2  3  4  5  17  18  19  20  21  22  23  24  25 0
 3-21G
 ****
 26  28  29  30  38  39  40  41  42  43  44  45 0
 3-21G
 ****


