%nproc=1
%NoSave
%Mem=1900MB
#P OB98/GEN NMR

erre ene a

0 1
  C       69.504     438.196     -40.920
  O       69.873     439.132     -41.913
  H       69.207     437.265     -41.407
  H       68.656     438.578     -40.346
  H       70.344     437.991     -40.249
  P       70.565     440.492     -41.421
  C       72.931     439.413     -41.316
  O       72.103     440.418     -41.887
  C       74.300     439.415     -41.998
  O       74.170     438.760     -43.295
  C       74.872     440.816     -42.250
  O       76.294     440.761     -42.079
  C       74.558     441.060     -43.715
  O       75.404     442.021     -44.335
  C       74.727     439.647     -44.285
  N       74.065     439.481     -45.577
  C       74.875     439.353     -46.703
  O       76.102     439.289     -46.679
  N       74.213     439.302     -47.903
  C       72.863     439.384     -48.086
  O       72.333     439.354     -49.192
  C       72.060     439.527     -46.861
  C       72.687     439.567     -45.685
  O       70.649     440.301     -39.836
  O       69.861     441.749     -41.811
  H       69.841     440.642     -39.406
  H       75.148     442.062     -45.285
  H       74.787     439.210     -48.728
  H       70.987     439.605     -46.969
  H       72.128     439.694     -44.762
  H       75.791     439.401     -44.384
  H       73.519     441.402     -43.823
  H       74.450     441.594     -41.604
  H       74.992     438.808     -41.402
  H       72.462     438.436     -41.456
  H       73.041     439.602     -40.242
  P       76.962     441.846     -41.103
  C       77.342     440.396     -38.950
  O       77.899     441.007     -40.106
  O       75.708     442.273     -40.208
  O       77.626     442.961     -41.837
  H       75.099     441.533     -40.033
  H       78.112     439.884     -38.411
  H       76.588     439.697     -39.245
  H       76.907     441.147     -38.324

 6  7  8  9  10  11  12  13  14  15  16  27  31  32  33  34  35 0
 6-311+G(2d,p)
 ****
 36  37 0
 6-311+G(2d,p)
 ****
 1  2  3  4  5  17  18  19  20  21  22  23  24  25 0
 3-21G
 ****
 26  28  29  30  38  39  40  41  42  43  44  45 0
 3-21G
 ****


