%nproc=1
%NoSave
%Mem=1900MB
#P OB98/GEN NMR

erre ene a

0 1
  C       22.767      69.005      18.669
  O       23.879      68.111      18.591
  P       23.793      66.683      19.307
  C       22.102      64.725      19.293
  O       22.712      65.774      18.549
  C       21.423      63.734      18.344
  O       20.464      64.396      17.485
  C       22.401      63.065      17.387
  O       23.313      62.145      17.950
  C       21.482      62.553      16.292
  O       20.891      61.303      16.643
  C       20.409      63.666      16.240
  N       20.577      64.558      15.093
  C       20.248      64.025      13.851
  O       19.880      62.864      13.690
  N       20.393      64.869      12.783
  C       20.858      66.151      12.831
  O       20.990      66.855      11.839
  C       21.212      66.651      14.169
  C       21.058      65.846      15.222
  O       23.673      66.709      20.793
  O       25.180      65.991      18.875
  H       20.280      61.056      15.923
  H       25.529      65.514      19.653
  H       20.152      64.502      11.875
  H       21.589      67.661      14.245
  H       21.313      66.195      16.217
  H       19.406      63.228      16.177
  H       22.022      62.399      15.352
  H       23.021      63.853      16.935
  H       20.879      62.999      18.939
  H       21.373      65.142      19.991
  H       22.867      64.232      19.903
  P       24.903      62.329      17.880
  C       26.748      63.422      19.337
  O       25.370      63.182      19.155
  O       25.494      62.694      16.560
  O       25.409      60.854      18.273
  H       26.239      60.675      17.792
  H       26.882      63.999      20.256
  H       27.150      63.999      18.501
  H       27.291      62.478      19.434
  H       22.996      69.906      18.139
  H       22.566      69.236      19.694
  H       21.906      68.543      18.232

 3  4  5  6  7  8  9  10  11  12  13  23  28  29  30  31  32 0
 6-311+G(2d,p)
 ****
 33  34 0
 6-311+G(2d,p)
 ****
 1  2  14  15  16  17  18  19  20  21  22  24  25  26  27 0
 3-21G
 ****
 35  36  37  38  39  40  41  42  43  44  45 0
 3-21G
 ****


