%nproc=1
%NoSave
%Mem=1900MB
#P OB98/GEN NMR

erre ene a

0 1
  C      290.746     -51.120    -119.918
  O      290.795     -51.977    -121.035
  H      291.458     -51.479    -119.170
  H      289.742     -51.143    -119.483
  H      291.006     -50.094    -120.186
  P      290.217     -51.449    -122.432
  C      291.626     -52.733    -124.176
  O      290.372     -52.630    -123.514
  C      291.635     -53.861    -125.203
  O      291.782     -55.132    -124.533
  C      290.331     -53.938    -126.005
  O      290.298     -53.106    -127.151
  C      290.281     -55.413    -126.395
  O      290.978     -55.655    -127.624
  C      290.991     -56.111    -125.232
  N      288.201     -60.259    -124.141
  C      288.874     -59.949    -125.310
  N      288.752     -60.837    -126.319
  N      289.578     -58.854    -125.462
  C      289.526     -58.019    -124.403
  C      288.878     -58.211    -123.201
  C      288.162     -59.451    -123.011
  O      287.569     -59.782    -121.993
  N      289.015     -57.118    -122.373
  C      289.667     -56.239    -123.112
  N      290.072     -56.769    -124.322
  O      291.320     -50.393    -122.921
  O      288.861     -50.812    -122.372
  H      291.837     -55.183    -127.583
  H      290.892     -49.686    -123.439
  H      287.701     -61.126    -124.067
  H      289.920     -55.227    -122.807
  H      291.688     -56.883    -125.590
  H      289.248     -55.743    -126.548
  H      288.152     -61.648    -126.283
  H      289.470     -53.723    -125.363
  H      289.067     -60.554    -127.250
  H      292.503     -53.749    -125.864
  H      292.370     -52.925    -123.397
  H      291.885     -51.783    -124.653
  P      289.016     -53.065    -128.110
  C      289.186     -50.742    -129.324
  O      289.356     -52.145    -129.365
  O      287.976     -52.181    -127.269
  O      288.450     -54.395    -128.482
  H      287.340     -52.756    -126.802
  H      289.471     -50.321    -130.265
  H      289.799     -50.331    -128.549
  H      288.160     -50.513    -129.126

 6  7  8  9  10  11  12  13  14  15  26  29  33  34 0
 6-311+G(2d,p)
 ****
 36  38  39  40  41 0
 6-311+G(2d,p)
 ****
 1  2  3  4  5  16  17  18  19  20  21  22  23  24  25 0
 3-21G
 ****
 27  28  30  31  32  35  37  42  43  44  45  46  47 0
 3-21G
 ****
 48  49 0
 3-21G
 ****


