%nproc=1
%NoSave
%Mem=1900MB
#P OB98/GEN NMR

erre ene a

0 1
  C      -14.905     -40.841     -43.301
  O      -15.548     -40.955     -42.043
  P      -15.267     -42.260     -41.154
  C      -17.398     -43.355     -42.233
  O      -16.035     -43.473     -41.870
  C      -17.883     -44.643     -42.905
  O      -17.250     -44.761     -44.210
  C      -17.565     -45.926     -42.124
  O      -18.656     -46.832     -42.336
  C      -16.308     -46.435     -42.809
  O      -16.098     -47.823     -42.607
  C      -16.598     -46.045     -44.263
  N      -15.397     -45.976     -45.097
  C      -15.440     -46.583     -46.349
  O      -16.418     -47.188     -46.784
  N      -14.290     -46.494     -47.091
  C      -13.113     -45.934     -46.690
  O      -12.108     -45.899     -47.390
  C      -13.112     -45.353     -45.339
  C      -14.237     -45.392     -44.623
  O      -16.152     -41.948     -39.859
  O      -13.821     -42.504     -40.887
  H      -16.978     -41.478     -40.067
  H      -16.859     -48.302     -42.982
  H      -14.310     -46.894     -48.019
  H      -12.192     -44.912     -44.978
  H      -14.262     -44.971     -43.624
  H      -17.312     -46.750     -44.705
  H      -15.438     -45.897     -42.416
  H      -17.435     -45.744     -41.054
  H      -18.963     -44.556     -43.075
  H      -17.518     -42.522     -42.931
  H      -17.992     -43.133     -41.340
  P      -19.073     -47.813     -41.129
  C      -17.952     -49.882     -42.279
  O      -18.056     -49.050     -41.146
  O      -20.417     -48.450     -41.734
  O      -19.292     -47.138     -39.816
  H      -20.309     -48.764     -42.646
  H      -17.006     -50.428     -42.230
  H      -17.972     -49.301     -43.204
  H      -18.775     -50.603     -42.281
  H      -15.193     -39.922     -43.767
  H      -15.192     -41.662     -43.924
  H      -13.844     -40.853     -43.162

 3  4  5  6  7  8  9  10  11  12  13  24  28  29  30  31  32 0
 6-311+G(2d,p)
 ****
 33  34 0
 6-311+G(2d,p)
 ****
 1  2  14  15  16  17  18  19  20  21  22  23  25  26  27 0
 3-21G
 ****
 35  36  37  38  39  40  41  42  43  44  45 0
 3-21G
 ****


