%nproc=1
%NoSave
%Mem=1900MB
#P OB98/GEN NMR

erre ene a

0 1
  C      -27.098      67.143    -472.418
  O      -27.418      66.750    -471.099
  H      -27.713      68.011    -472.683
  H      -27.312      66.331    -473.121
  H      -26.042      67.425    -472.484
  P      -26.700      65.420    -470.558
  C      -26.440      63.108    -471.741
  O      -27.227      64.273    -471.558
  C      -27.100      62.192    -472.767
  O      -27.307      62.892    -474.014
  C      -26.282      60.953    -473.128
  O      -26.354      59.932    -472.145
  C      -26.988      60.546    -474.423
  O      -28.248      59.941    -474.110
  C      -27.166      61.925    -475.102
  N      -26.045      62.288    -475.968
  C      -25.977      61.634    -477.210
  O      -26.832      60.803    -477.529
  N      -24.925      61.918    -478.040
  C      -24.030      62.789    -477.696
  N      -23.007      63.020    -478.568
  C      -24.058      63.501    -476.408
  C      -25.081      63.205    -475.604
  O      -27.494      65.100    -469.205
  O      -25.217      65.488    -470.404
  H      -28.758      60.592    -473.599
  H      -27.233      64.200    -468.858
  H      -23.276      64.203    -476.146
  H      -25.171      63.692    -474.632
  H      -28.093      61.953    -475.684
  H      -26.421      59.825    -475.004
  H      -25.243      61.211    -473.355
  H      -28.094      61.916    -472.385
  H      -22.977      62.468    -479.415
  H      -26.354      62.594    -470.774
  H      -22.186      63.557    -478.321
  H      -25.436      63.380    -472.082
  P      -25.252      58.754    -472.231
  C      -24.547      57.279    -474.250
  O      -25.607      57.883    -473.529
  O      -25.660      57.795    -471.020
  O      -23.829      59.223    -472.134
  H      -24.870      57.382    -470.616
  H      -24.945      56.737    -475.082
  H      -24.016      56.608    -473.608
  H      -23.879      58.037    -474.604

 6  7  8  9  10  11  12  13  14  15  16  26  30  31  32  33  35 0
 6-311+G(2d,p)
 ****
 37  38 0
 6-311+G(2d,p)
 ****
 1  2  3  4  5  17  18  19  20  21  22  23  24  25 0
 3-21G
 ****
 27  28  29  34  36  39  40  41  42  43  44  45  46 0
 3-21G
 ****


