%nproc=1
%NoSave
%Mem=1900MB
#P OB98/GEN NMR

erre ene a

0 1
  C     -321.137      61.855      25.465
  O     -322.073      62.419      24.569
  H     -321.594      61.703      26.448
  H     -320.812      60.888      25.071
  H     -320.264      62.509      25.558
  P     -322.750      63.802      25.025
  C     -324.258      64.525      27.008
  O     -323.726      63.447      26.250
  C     -325.239      64.005      28.049
  O     -326.393      63.434      27.402
  C     -324.693      62.899      28.946
  O     -323.864      63.416      29.978
  C     -325.989      62.323      29.502
  O     -326.460      63.148      30.583
  C     -326.940      62.433      28.302
  N     -329.914      58.302      27.612
  C     -330.036      59.374      28.428
  N     -329.201      60.426      28.567
  C     -328.153      60.316      27.736
  C     -327.897      59.283      26.848
  C     -328.831      58.235      26.805
  N     -328.687      57.136      25.981
  N     -326.730      59.519      26.150
  C     -326.287      60.674      26.607
  N     -327.113      61.191      27.572
  O     -323.767      64.131      23.827
  O     -321.805      64.931      25.265
  H     -325.780      63.108      31.281
  H     -323.795      65.098      23.694
  H     -330.923      59.387      29.056
  H     -325.389      61.172      26.269
  H     -327.931      62.789      28.608
  H     -325.873      61.307      29.889
  H     -324.177      62.133      28.359
  H     -325.582      64.861      28.647
  H     -324.778      65.219      26.337
  H     -329.477      56.525      25.848
  H     -327.875      57.101      25.373
  H     -323.431      65.057      27.492
  P     -322.694      62.463      30.532
  C     -322.633      59.984      31.301
  O     -323.428      61.145      31.075
  O     -322.228      63.205      31.873
  O     -321.554      62.247      29.594
  H     -321.301      62.969      32.077
  H     -323.255      59.190      31.659
  H     -321.880      60.204      32.029
  H     -322.168      59.686      30.385

 6  7  8  9  10  11  12  13  14  15  25  28  32  33  34  35 0
 6-311+G(2d,p)
 ****
 36  39  40 0
 6-311+G(2d,p)
 ****
 1  2  3  4  5  16  17  18  19  20  21  22  23  24 0
 3-21G
 ****
 26  27  29  30  31  37  38  41  42  43  44  45  46  47  48 0
 3-21G
 ****


