%nproc=1
%NoSave
%Mem=1900MB
#P OB98/GEN NMR

erre ene a

0 1
  C      172.434      46.797      32.804
  O      171.444      47.726      33.196
  H      173.395      47.313      32.739
  H      172.191      46.381      31.823
  H      172.514      45.993      33.540
  P      169.958      47.157      33.392
  C      169.005      48.180      31.200
  O      168.982      48.172      32.622
  C      168.874      49.612      30.690
  O      168.980      49.621      29.248
  C      167.534      50.269      31.006
  O      167.476      50.739      32.341
  C      167.499      51.383      29.968
  O      168.231      52.535      30.405
  C      168.204      50.741      28.766
  N      165.898      52.040      24.411
  C      166.839      52.660      25.155
  N      167.418      52.235      26.299
  C      166.935      51.032      26.652
  C      165.971      50.284      25.999
  C      165.442      50.832      24.820
  N      164.459      50.217      24.083
  N      165.707      49.122      26.696
  C      166.503      49.164      27.746
  N      167.265      50.296      27.756
  O      169.664      47.449      34.939
  O      169.777      45.716      33.050
  H      167.718      52.929      31.137
  H      169.874      46.657      35.467
  H      167.168      53.627      24.784
  H      166.555      48.409      28.521
  H      168.902      51.431      28.278
  H      166.477      51.705      29.766
  H      166.713      49.571      30.804
  H      169.703      50.205      31.096
  H      168.167      47.585      30.821
  H      169.944      47.733      30.858
  H      164.108      50.681      23.259
  H      164.037      49.369      24.437
  P      166.101      50.586      33.145
  C      164.559      52.132      31.735
  O      165.268      51.944      32.948
  O      166.563      50.644      34.676
  O      165.334      49.344      32.840
  H      166.606      49.745      35.052
  H      164.059      53.078      31.757
  H      163.838      51.350      31.618
  H      165.245      52.110      30.914

 6  7  8  9  10  11  12  13  14  15  25  28  32  33  34  35 0
 6-311+G(2d,p)
 ****
 36  37  40 0
 6-311+G(2d,p)
 ****
 1  2  3  4  5  16  17  18  19  20  21  22  23  24 0
 3-21G
 ****
 26  27  29  30  31  38  39 41  42  43  44  45  46  47  48 0
 3-21G
 ****


