%nproc=1
%NoSave
%Mem=1900MB
#P OB98/GEN NMR

erre ene a

0 1
  C      177.285    -493.880    -424.142
  O      177.775    -492.550    -424.031
  P      176.697    -491.350    -424.085
  C      178.685    -489.706    -423.766
  O      177.498    -490.018    -424.480
  C      179.555    -488.717    -424.538
  O      180.053    -489.379    -425.746
  C      178.830    -487.438    -425.004
  O      179.780    -486.376    -424.942
  C      178.450    -487.773    -426.423
  O      178.101    -486.648    -427.221
  C      179.704    -488.525    -426.857
  N      179.612    -488.446    -431.993
  C      179.924    -487.492    -431.070
  N      179.934    -487.588    -429.728
  C      179.577    -488.835    -429.348
  C      179.221    -489.887    -430.150
  C      179.248    -489.660    -431.542
  N      178.917    -490.630    -432.474
  N      178.912    -491.007    -429.392
  C      179.060    -490.612    -428.143
  N      179.482    -489.331    -428.068
  O      176.337    -491.112    -422.535
  O      175.481    -491.632    -424.907
  H      178.009    -486.909    -428.154
  H      175.396    -490.928    -422.413
  H      180.199    -486.513    -431.468
  H      178.863    -491.230    -427.272
  H      180.549    -487.858    -427.051
  H      177.582    -488.430    -426.434
  H      177.978    -487.184    -424.357
  H      180.431    -488.467    -423.921
  H      179.263    -490.622    -423.600
  H      178.761    -490.313    -433.414
  H      178.455    -491.462    -432.123
  H      178.413    -489.295    -422.772
  P      179.295    -484.920    -424.489
  C      181.666    -484.177    -423.780
  O      180.599    -483.974    -424.702
  O      179.280    -485.065    -422.885
  O      178.010    -484.433    -425.081
  H      180.117    -485.446    -422.557
  H      182.514    -483.565    -424.105
  H      181.965    -485.225    -423.762
  H      181.352    -483.856    -422.769
  H      178.104    -494.567    -424.091
  H      176.779    -493.997    -425.078
  H      176.603    -494.077    -423.341

 3  4  5  6  7  8  9  10  11  12  22  25  29  30  31  32 0
 6-311+G(2d,p)
 ****
 33  36  37 0
 6-311+G(2d,p)
 ****
 1  2  13  14  15  16  17  18  19  20  21  23  24  26 0
 3-21G
 ****
 27  28  34  35  38  39  40  41  42  43  44  45  46  47  48 0
 3-21G
 ****


