%nproc=1
%NoSave
%Mem=1900MB
#P OB98/GEN NMR

erre ene a

0 1
  C       14.532     157.943     -76.234
  O       14.188     158.230     -77.574
  P       14.800     157.357     -78.770
  C       16.549     158.756     -80.031
  O       16.322     157.808     -78.993
  C       16.256     160.171     -79.537
  O       16.902     160.414     -78.266
  C       16.768     161.268     -80.455
  O       15.988     161.383     -81.632
  C       16.717     162.474     -79.529
  O       15.383     163.003     -79.449
  C       17.124     161.844     -78.178
  N       18.500     162.146     -77.815
  C       18.686     163.252     -76.983
  O       17.732     163.959     -76.657
  N       19.959     163.533     -76.542
  C       20.963     162.854     -76.999
  N       22.188     163.137     -76.483
  C       20.821     161.782     -78.006
  C       19.572     161.470     -78.350
  O       13.972     157.309     -80.012
  O       14.957     155.892     -78.139
  H       14.551     155.243     -78.746
  H       15.426     163.770     -78.845
  H       21.696     161.292     -78.405
  H       19.372     160.681     -79.068
  H       16.462     162.199     -77.379
  H       17.368     163.288     -79.861
  H       17.811     161.063     -80.729
  H       15.172     160.264     -79.394
  H       22.244     163.866     -75.780
  H       15.891     158.517     -80.873
  H       22.960     162.477     -76.516
  H       17.585     158.674     -80.374
  P       16.658     162.150     -82.873
  C       16.042     164.653     -83.125
  O       16.827     163.685     -82.455
  O       15.484     162.178     -83.964
  O       17.888     161.499     -83.416
  H       15.865     162.073     -84.856
  H       16.007     165.558     -82.514
  H       15.023     164.297     -83.289
  H       16.504     164.893     -84.086
  H       14.029     158.627     -75.582
  H       15.590     158.043     -76.108
  H       14.237     156.942     -75.997

 3  4  5  6  7  8  9  10  11  12  13  24  27  28  29  30  32 0
 6-311+G(2d,p)
 ****
 34  35 0
 6-311+G(2d,p)
 ****
 1  2  14  15  16  17  18  19  20  21  22  23  25  26 0
 3-21G
 ****
 31  33  36  37  38  39  40  41  42  43  44  45  46 0
 3-21G
 ****


