%nproc=1
%NoSave
%Mem=1900MB
#P OB98/GEN NMR

erre ene a

0 1
  C     -762.186    -664.147    1589.257
  O     -762.577    -664.682    1590.503
  H     -761.937    -663.095    1589.391
  H     -762.999    -664.232    1588.532
  H     -761.300    -664.675    1588.879
  P     -763.068    -666.211    1590.576
  C     -765.501    -665.376    1590.835
  O     -764.475    -666.206    1591.352
  C     -766.871    -665.953    1591.168
  O     -767.004    -667.224    1590.478
  C     -767.061    -666.227    1592.678
  O     -768.232    -665.611    1593.221
  C     -766.912    -667.730    1592.783
  O     -767.571    -668.306    1593.891
  C     -767.394    -668.215    1591.424
  N     -766.855    -669.540    1591.036
  C     -767.332    -670.653    1591.740
  O     -768.165    -670.630    1592.638
  N     -766.786    -671.868    1591.348
  C     -765.844    -672.036    1590.382
  O     -765.405    -673.147    1590.083
  C     -765.373    -670.834    1589.692
  C     -765.892    -669.643    1590.060
  O     -762.050    -667.168    1591.104
  O     -763.480    -666.566    1589.075
  H     -767.392    -669.277    1593.865
  H     -762.792    -667.118    1588.666
  H     -767.135    -672.677    1591.840
  H     -764.620    -670.948    1588.939
  H     -765.578    -668.731    1589.580
  H     -768.489    -668.317    1591.415
  H     -765.840    -667.978    1592.896
  H     -766.242    -665.741    1593.247
  H     -767.652    -665.294    1590.791
  H     -765.373    -665.327    1589.745
  H     -765.402    -664.365    1591.260
  P     -768.249    -664.370    1594.211
  C     -769.206    -665.509    1596.401
  O     -769.384    -664.622    1595.301
  O     -768.188    -663.026    1593.579
  O     -766.887    -664.561    1595.091
  H     -766.579    -663.663    1595.314
  H     -770.094    -665.520    1596.998
  H     -768.380    -665.178    1596.996
  H     -769.010    -666.495    1596.036

 6  7  8  9  10  11  12  13  14  15  16  26  31  32  33  34  35 0
 6-311+G(2d,p)
 ****
 36  37 0
 6-311+G(2d,p)
 ****
 1  2  3  4  5  17  18  19  20  21  22  23  24  25 0
 3-21G
 ****
 27  28  29  30  38  39  40  41  42  43  44  45 0
 3-21G
 ****


