%nproc=1
%NoSave
%Mem=1900MB
#P OB98/GEN NMR

erre ene a

0 1
  C     -432.234     542.152    -494.655
  O     -432.762     541.711    -493.425
  H     -431.327     542.728    -494.458
  H     -432.948     542.802    -495.167
  H     -431.975     541.302    -495.295
  P     -434.128     540.869    -493.415
  C     -432.742     538.772    -492.874
  O     -433.698     539.355    -493.752
  C     -432.211     537.450    -493.432
  O     -431.721     537.655    -494.792
  C     -431.066     536.842    -492.607
  O     -431.311     535.455    -492.386
  C     -429.849     537.019    -493.510
  O     -428.817     536.082    -493.236
  C     -430.496     536.900    -494.899
  N     -429.634     537.397    -495.952
  C     -429.186     536.447    -496.889
  O     -429.541     535.274    -496.777
  N     -428.310     536.835    -497.865
  C     -427.888     538.063    -497.899
  N     -427.008     538.378    -498.874
  C     -428.313     539.092    -496.913
  C     -429.172     538.698    -495.983
  O     -435.214     541.428    -494.270
  O     -434.538     540.777    -491.867
  H     -429.198     535.180    -493.270
  H     -435.506     540.599    -491.805
  H     -427.918     540.095    -496.983
  H     -429.538     539.380    -495.219
  H     -430.764     535.860    -495.121
  H     -429.439     538.026    -493.379
  H     -430.927     537.337    -491.651
  H     -433.058     536.753    -493.520
  H     -426.737     537.648    -499.514
  H     -433.225     538.615    -491.898
  H     -426.580     539.289    -498.981
  H     -431.912     539.474    -492.757
  P     -431.962     535.060    -490.974
  C     -433.910     533.695    -492.024
  O     -433.530     534.806    -491.213
  O     -431.917     536.438    -490.147
  O     -431.233     533.967    -490.269
  H     -431.257     536.366    -489.435
  H     -434.977     533.652    -492.093
  H     -433.545     532.791    -491.584
  H     -433.493     533.809    -493.003

 6  7  8  9  10  11  12  13  14  15  16  26  30  31  32  33  35 0
 6-311+G(2d,p)
 ****
 37  38 0
 6-311+G(2d,p)
 ****
 1  2  3  4  5  17  18  19  20  21  22  23  24  25 0
 3-21G
 ****
 27  28  29  34  36  39  40  41  42  43  44  45  46 0
 3-21G
 ****


