%nproc=1
%NoSave
%Mem=1900MB
#P OB98/GEN NMR

erre ene a

0 1
  C       79.143    -103.512     -24.231
  O       78.485    -102.939     -23.116
  H       79.801    -104.306     -23.876
  H       79.740    -102.765     -24.759
  H       78.405    -103.948     -24.914
  P       77.672    -101.573     -23.339
  C       75.596    -102.922     -24.063
  O       76.541    -101.920     -24.429
  C       74.163    -102.433     -24.264
  O       73.890    -101.291     -23.426
  C       73.861    -101.959     -25.678
  O       73.883    -102.970     -26.661
  C       72.593    -101.147     -25.472
  O       71.424    -101.966     -25.438
  C       72.848    -100.526     -24.080
  N       73.186     -99.107     -24.154
  C       72.172     -98.221     -23.822
  O       71.039     -98.573     -23.499
  N       72.494     -96.892     -23.901
  C       73.685     -96.379     -24.321
  O       73.906     -95.178     -24.395
  C       74.707     -97.373     -24.701
  C       74.420     -98.669     -24.602
  O       78.506    -100.374     -23.688
  O       76.831    -101.402     -21.988
  H       71.330    -102.370     -26.324
  H       76.482    -100.481     -21.898
  H       71.776     -96.231     -23.647
  H       75.660     -97.003     -25.050
  H       75.156     -99.418     -24.869
  H       71.953    -100.628     -23.448
  H       72.446    -100.406     -26.262
  H       74.641    -101.241     -25.972
  H       73.482    -103.237     -23.963
  H       75.749    -103.150     -23.001
  H       75.775    -103.826     -24.649
  P       74.324    -102.731     -28.170
  C       76.510    -104.136     -28.486
  O       75.923    -102.859     -28.265
  O       73.667    -101.596     -28.890
  O       73.834    -104.105     -28.872
  H       73.557    -103.877     -29.781
  H       77.575    -104.038     -28.521
  H       76.157    -104.535     -29.414
  H       76.239    -104.796     -27.688

 6  7  8  9  10  11  12  13  14  15  16  26  31  32  33  34  35 0
 6-311+G(2d,p)
 ****
 36  37 0
 6-311+G(2d,p)
 ****
 1  2  3  4  5  17  18  19  20  21  22  23  24  25 0
 3-21G
 ****
 27  28  29  30  38  39  40  41  42  43  44  45 0
 3-21G
 ****


