%nproc=1
%NoSave
%Mem=1900MB
#P OB98/GEN NMR

erre ene a

0 1
  C      826.458    -540.938     207.395
  O      826.283    -541.128     205.981
  P      826.407    -539.822     205.058
  C      824.171    -538.850     205.987
  O      825.555    -538.652     205.736
  C      823.467    -537.568     206.424
  O      823.428    -536.604     205.312
  C      822.003    -537.789     206.871
  O      821.739    -536.839     207.899
  C      821.199    -537.427     205.638
  O      819.849    -537.104     205.981
  C      822.034    -536.258     205.092
  N      821.781    -535.983     203.660
  C      820.724    -535.101     203.371
  O      820.025    -534.628     204.289
  N      820.488    -534.781     202.065
  C      821.172    -535.354     201.121
  N      820.873    -535.002     199.838
  C      822.241    -536.345     201.387
  C      822.492    -536.600     202.674
  O      825.528    -540.223     203.768
  O      827.800    -539.474     204.687
  H      819.366    -536.874     205.160
  H      826.035    -540.023     202.959
  H      822.774    -536.809     200.556
  H      823.249    -537.318     202.970
  H      821.831    -535.332     205.650
  H      821.194    -538.271     204.933
  H      821.818    -538.789     207.249
  H      824.043    -537.118     207.227
  H      820.140    -534.314     199.704
  H      824.052    -539.593     206.782
  H      821.330    -535.382     199.043
  H      823.718    -539.288     205.087
  P      822.199    -537.174     209.411
  C      820.041    -538.060     210.494
  O      821.269    -538.399     209.858
  O      821.553    -535.957     210.232
  O      823.654    -537.291     209.680
  H      821.818    -536.005     211.158
  H      819.459    -538.965     210.624
  H      819.470    -537.363     209.898
  H      820.236    -537.629     211.495
  H      826.352    -541.877     207.897
  H      825.718    -540.255     207.757
  H      827.433    -540.541     207.583

 3  4  5  6  7  8  9  10  11  12  13  21  23  27  28  29  30  32 0
 6-311+G(2d,p)
 ****
 34  35 0
 6-311+G(2d,p)
 ****
 1  2  14  15  16  17  18  19  20  22  24  25  26 0
 3-21G
 ****
 31  33  36  37  38  39  40  41  42  43  44  45  46 0
 3-21G
 ****


