%nproc=1
%NoSave
%Mem=1900MB
#P OB98/GEN NMR

erre ene a

0 1
  C      170.294     133.397     316.894
  O      170.743     134.223     317.955
  P      170.107     133.971     319.409
  C      172.361     134.294     320.674
  O      171.288     133.419     320.346
  C      173.679     133.523     320.709
  O      173.981     132.999     319.399
  C      174.893     134.354     321.106
  O      174.912     134.599     322.503
  C      176.021     133.458     320.601
  O      176.249     132.382     321.523
  C      175.429     132.907     319.288
  N      177.827     132.616     314.769
  C      177.588     131.695     315.729
  N      176.962     131.850     316.913
  C      176.553     133.122     317.066
  C      176.743     134.180     316.193
  C      177.407     133.886     314.990
  N      177.655     134.839     314.017
  N      176.207     135.342     316.702
  C      175.693     134.993     317.860
  N      175.865     133.659     318.124
  O      169.189     132.685     319.182
  O      169.334     135.121     319.968
  H      175.448     131.822     321.521
  H      168.388     132.721     319.744
  H      177.951     130.689     315.511
  H      175.184     135.663     318.545
  H      175.687     131.858     319.118
  H      176.971     133.991     320.470
  H      174.900     135.304     320.562
  H      173.558     132.674     321.400
  H      172.183     134.737     321.660
  H      178.267     134.582     313.256
  H      177.469     135.805     314.241
  H      172.401     135.101     319.936
  P      174.811     136.130     322.981
  C      173.472     135.415     325.058
  O      173.462     136.167     323.856
  O      174.376     136.860     321.629
  O      176.034     136.657     323.648
  H      173.631     136.412     321.192
  H      172.526     135.570     325.573
  H      174.292     135.746     325.704
  H      173.583     134.350     324.832
  H      170.797     133.672     315.990
  H      169.239     133.521     316.767
  H      170.508     132.374     317.123

 3  4  5  6  7  8  9  10  11  12  22  25  29  30  31  32 0
 6-311+G(2d,p)
 ****
 33  36  37 0
 6-311+G(2d,p)
 ****
 1  2  13  14  15  16  17  18  19  20  21  23  24  26 0
 3-21G
 ****
 27  28  34  35  38  39  40  41  42  43  44  45  46  47  48 0
 3-21G
 ****


