%nproc=1
%NoSave
%Mem=1900MB
#P OB98/GEN NMR

erre ene a

0 1
  C     -329.404     703.358     261.090
  O     -329.923     702.046     261.276
  P     -329.834     701.384     262.734
  C     -332.035     702.236     263.939
  O     -331.306     701.193     263.333
  C     -333.439     701.725     264.303
  O     -334.043     702.586     265.305
  C     -334.393     701.690     263.117
  O     -334.291     700.468     262.389
  C     -335.745     701.873     263.792
  O     -336.172     700.646     264.395
  C     -335.391     702.913     264.877
  N     -335.425     704.354     264.504
  C     -336.606     704.907     263.994
  O     -337.641     704.272     263.816
  N     -336.554     706.237     263.693
  C     -335.543     707.107     263.992
  O     -335.579     708.302     263.750
  C     -334.385     706.500     264.668
  C     -334.380     705.177     264.878
  O     -329.204     702.544     263.640
  O     -329.033     700.128     262.799
  H     -335.421     700.291     264.896
  H     -328.330     702.277     263.969
  H     -337.375     706.640     263.246
  H     -333.576     707.159     264.963
  H     -333.520     704.721     265.371
  H     -336.049     702.801     265.749
  H     -336.507     702.146     263.070
  H     -334.224     702.546     262.461
  H     -333.341     700.722     264.740
  H     -332.111     703.099     263.277
  H     -331.514     702.578     264.843
  P     -333.988     700.503     260.821
  C     -331.469     700.812     260.445
  O     -332.517     699.888     260.644
  O     -334.233     701.819     260.132
  O     -334.929     699.337     260.242
  H     -335.780     699.708     259.906
  H     -330.513     700.298     260.510
  H     -331.498     701.592     261.224
  H     -331.564     701.279     259.461
  H     -329.539     703.654     260.070
  H     -328.361     703.366     261.329
  H     -329.922     704.041     261.731

 3  4  5  6  7  8  9  10  11  12  13  23  28  29  30  31  32 0
 6-311+G(2d,p)
 ****
 33  34 0
 6-311+G(2d,p)
 ****
 1  2  14  15  16  17  18  19  20  21  22  24  25  26  27 0
 3-21G
 ****
 35  36  37  38  39  40  41  42  43  44  45 0
 3-21G
 ****


