%nproc=1
%NoSave
%Mem=1900MB
#P OB98/GEN NMR

erre ene a

0 1
  C     -127.949    -168.378     146.201
  O     -128.793    -169.362     146.773
  H     -127.036    -168.868     145.843
  H     -127.675    -167.621     146.940
  H     -128.447    -167.907     145.350
  P     -130.066    -168.865     147.617
  C     -130.415    -167.820     149.955
  O     -129.478    -168.394     149.040
  C     -129.703    -167.206     151.161
  O     -128.873    -166.094     150.755
  C     -130.644    -166.625     152.210
  O     -131.429    -167.577     152.888
  C     -129.710    -165.728     153.008
  O     -128.963    -166.451     153.988
  C     -128.760    -165.212     151.895
  N     -129.031    -163.824     151.533
  C     -128.377    -162.856     152.288
  O     -127.625    -163.119     153.229
  N     -128.642    -161.554     151.950
  C     -129.512    -161.138     150.984
  O     -129.720    -159.953     150.742
  C     -130.206    -162.207     150.242
  C     -129.936    -163.483     150.546
  O     -131.196    -169.846     147.723
  O     -130.476    -167.483     146.920
  H     -128.366    -165.810     154.419
  H     -131.385    -167.202     147.187
  H     -128.165    -160.838     152.476
  H     -130.913    -161.912     149.478
  H     -130.435    -164.289     150.011
  H     -127.713    -165.276     152.232
  H     -130.247    -164.932     153.529
  H     -131.353    -165.959     151.700
  H     -129.045    -167.970     151.595
  H     -131.079    -168.622     150.297
  H     -131.009    -167.060     149.438
  P     -132.682    -167.206     153.807
  C     -133.061    -166.154     156.174
  O     -132.141    -166.659     155.215
  O     -133.820    -168.175     153.818
  O     -133.208    -165.844     153.100
  H     -134.185    -165.834     153.193
  H     -132.529    -165.836     157.046
  H     -133.756    -166.923     156.441
  H     -133.591    -165.324     155.757

 6  7  8  9  10  11  12  13  14  15  16  26  31  32  33  34  35 0
 6-311+G(2d,p)
 ****
 36  37 0
 6-311+G(2d,p)
 ****
 1  2  3  4  5  17  18  19  20  21  22  23  24  25 0
 3-21G
 ****
 27  28  29  30  38  39  40  41  42  43  44  45 0
 3-21G
 ****


