%nproc=1
%NoSave
%Mem=1900MB
#P OB98/GEN NMR

erre ene a

0 1
  C     -119.097     314.291       9.151
  O     -118.097     313.922       8.229
  H     -119.608     315.181       8.774
  H     -118.639     314.531      10.115
  H     -119.834     313.494       9.284
  P     -117.500     312.439       8.293
  C     -118.889     311.235       6.484
  O     -118.671     311.422       7.876
  C     -118.754     309.766       6.078
  O     -117.430     309.281       6.395
  C     -119.729     308.862       6.832
  O     -121.031     308.784       6.284
  C     -119.021     307.512       6.762
  O     -119.336     306.833       5.535
  C     -117.542     307.903       6.795
  N     -113.472     306.396       9.491
  C     -113.677     306.345       8.125
  N     -112.699     305.766       7.396
  N     -114.753     306.802       7.541
  C     -115.687     307.265       8.407
  C     -115.600     307.354       9.780
  C     -114.382     306.893      10.413
  O     -114.152     306.909      11.617
  N     -116.747     307.883      10.322
  C     -117.549     308.044       9.288
  N     -116.940     307.708       8.102
  O     -117.348     312.162       9.867
  O     -116.195     312.241       7.584
  H     -119.280     307.478       4.806
  H     -116.645     311.507      10.022
  H     -112.612     306.052       9.884
  H     -118.564     308.423       9.341
  H     -116.955     307.313       6.079
  H     -119.329     306.851       7.577
  H     -111.910     305.296       7.811
  H     -119.789     309.162       7.885
  H     -112.925     305.471       6.443
  H     -118.880     309.678       4.992
  H     -118.140     311.835       5.964
  H     -119.870     311.622       6.197
  P     -122.285     308.482       7.235
  C     -123.090     310.957       7.279
  O     -122.621     309.844       8.010
  O     -121.653     307.544       8.366
  O     -123.442     307.835       6.558
  H     -121.816     306.606       8.156
  H     -123.263     311.775       7.947
  H     -124.004     310.700       6.785
  H     -122.359     311.239       6.551

 6  7  8  9  10  11  12  13  14  15  26  29  33  34 0
 6-311+G(2d,p)
 ****
 36  38  39  40  41 0
 6-311+G(2d,p)
 ****
 1  2  3  4  5  16  17  18  19  20  21  22  23  24  25 0
 3-21G
 ****
 27  28  30  31  32  35  37  42  43  44  45  46  47 0
 3-21G
 ****
 48  49 0
 3-21G
 ****


