%nproc=1
%NoSave
%Mem=1900MB
#P OB98/GEN NMR

erre ene a

0 1
  C     -160.427    -904.660     970.892
  O     -160.364    -905.673     971.865
  P     -159.533    -907.036     971.557
  C     -161.209    -908.264     973.109
  O     -160.506    -908.277     971.859
  C     -161.870    -909.606     973.388
  O     -163.059    -909.777     972.560
  C     -160.977    -910.802     973.066
  O     -159.969    -910.963     974.044
  C     -162.025    -911.920     973.064
  O     -162.370    -912.352     974.393
  C     -163.240    -911.213     972.397
  N     -163.419    -911.567     971.001
  C     -164.354    -912.553     970.736
  O     -164.925    -913.130     971.662
  N     -164.634    -912.897     969.412
  C     -163.910    -912.345     968.459
  N     -164.247    -912.657     967.170
  C     -162.776    -911.425     968.699
  C     -162.588    -911.062     969.991
  O     -158.184    -907.143     972.186
  O     -159.418    -907.058     969.946
  H     -158.484    -907.224     969.708
  H     -163.111    -913.006     974.281
  H     -162.158    -911.084     967.876
  H     -161.815    -910.401     970.271
  H     -164.174    -911.468     972.938
  H     -161.691    -912.798     972.496
  H     -160.535    -910.707     972.090
  H     -162.199    -909.609     974.460
  H     -165.028    -913.303     967.033
  H     -161.968    -907.479     973.078
  H     -163.978    -912.068     966.374
  H     -160.510    -907.994     973.935
  P     -158.632    -911.724     973.582
  C     -158.528    -912.729     975.953
  O     -158.385    -912.939     974.560
  O     -157.459    -910.681     973.952
  O     -158.595    -912.067     972.093
  H     -156.762    -910.673     973.270
  H     -158.697    -913.698     976.463
  H     -159.416    -912.093     976.155
  H     -157.643    -912.255     976.376
  H     -161.011    -903.844     971.264
  H     -160.880    -905.047     970.003
  H     -159.438    -904.318     970.669

 3  4  5  6  7  8  9  10  11  12  13  24  27  28  29  30  32 0
 6-311+G(2d,p)
 ****
 34  35 0
 6-311+G(2d,p)
 ****
 1  2  14  15  16  17  18  19  20  21  22  23  25  26 0
 3-21G
 ****
 31  33  36  37  38  39  40  41  42  43  44  45  46 0
 3-21G
 ****


