%nproc=1
%NoSave
%Mem=1900MB
#P OB98/GEN NMR

erre ene a

0 1
  C      182.087     134.774     231.908
  O      182.444     134.813     230.540
  H      182.371     135.706     232.398
  H      181.002     134.651     231.984
  H      182.573     133.928     232.401
  P      183.998     135.027     230.207
  C      183.761     137.568     229.748
  O      184.350     136.556     230.557
  C      184.097     138.945     230.315
  O      183.298     139.157     231.508
  C      185.575     139.144     230.691
  O      186.122     140.256     229.976
  C      185.547     139.494     232.171
  O      186.472     140.519     232.527
  C      184.103     139.927     232.406
  N      182.752     142.249     236.736
  C      182.721     142.667     235.453
  N      182.995     141.965     234.334
  C      183.300     140.692     234.638
  C      183.351     140.115     235.895
  C      183.076     140.959     236.982
  N      183.158     140.546     238.295
  N      183.713     138.780     235.806
  C      183.922     138.571     234.522
  N      183.705     139.702     233.780
  O      184.040     134.989     228.606
  O      184.919     134.015     230.805
  H      186.127     141.349     232.151
  H      184.756     134.396     228.309
  H      182.452     143.710     235.301
  H      184.273     137.644     234.088
  H      183.950     140.989     232.174
  H      185.789     138.596     232.750
  H      186.180     138.250     230.509
  H      183.785     139.702     229.585
  H      182.673     137.442     229.739
  H      183.058     141.247     239.013
  H      183.505     139.618     238.488
  H      184.131     137.465     228.725
  P      187.147     139.913     228.785
  C      188.945     141.320     230.038
  O      188.633     140.109     229.363
  O      186.975     141.156     227.790
  O      186.879     138.613     228.108
  H      187.196     140.889     226.878
  H      189.965     141.296     230.360
  H      188.305     141.429     230.889
  H      188.800     142.146     229.374

 6  7  8  9  10  11  12  13  14  15  25  28  32  33  34  35 0
 6-311+G(2d,p)
 ****
 36  39  40 0
 6-311+G(2d,p)
 ****
 1  2  3  4  5  16  17  18  19  20  21  22  23  24 0
 3-21G
 ****
 26  27  29  30  31  37  38  41  42  43  44  45  46  47  48 0
 3-21G
 ****


