%nproc=1
%NoSave
%Mem=1900MB
#P OB98/GEN NMR

erre ene a

0 1
  C       -0.947      30.965     103.109
  O       -1.493      31.906     104.010
  H       -0.944      29.967     103.556
  H       -1.563      30.946     102.206
  H        0.072      31.254     102.836
  P       -0.789      32.005     105.448
  C       -3.038      33.029     106.230
  O       -1.972      32.139     106.526
  C       -4.265      32.673     107.060
  O       -4.763      31.373     106.684
  C       -4.017      32.590     108.561
  O       -3.974      33.875     109.165
  C       -5.241      31.803     109.005
  O       -6.373      32.686     109.109
  C       -5.446      30.823     107.840
  N       -6.048      26.501     110.547
  C       -6.748      27.658     110.527
  N       -6.525      28.766     109.793
  C       -5.456      28.603     108.996
  C       -4.647      27.483     108.906
  C       -4.972      26.396     109.734
  N       -4.242      25.228     109.758
  N       -3.654      27.673     107.970
  C       -3.858      28.887     107.501
  N       -4.933      29.492     108.096
  O       -0.130      33.466     105.442
  O        0.225      30.950     105.738
  H       -6.563      33.006     108.207
  H        0.715      33.434     105.929
  H       -7.608      27.697     111.191
  H       -3.260      29.363     106.733
  H       -6.504      30.734     107.571
  H       -5.113      31.320     109.976
  H       -3.114      32.010     108.783
  H       -5.048      33.410     106.836
  H       -3.290      32.954     105.167
  H       -4.633      24.423     110.217
  H       -3.442      25.156     109.138
  H       -2.714      34.052     106.446
  P       -2.571      34.354     109.786
  C       -3.951      35.843     111.400
  O       -2.912      34.881     111.262
  O       -2.259      35.699     108.977
  O       -1.460      33.368     109.676
  H       -1.296      35.864     108.966
  H       -4.065      36.099     112.433
  H       -4.868      35.433     111.031
  H       -3.701      36.720     110.841

 6  7  8  9  10  11  12  13  14  15  25  28  32  33  34  35 0
 6-311+G(2d,p)
 ****
 36  39  40 0
 6-311+G(2d,p)
 ****
 1  2  3  4  5  16  17  18  19  20  21  22  23  24 0
 3-21G
 ****
 26  27  29  30  31  37  38  41  42  43  44  45  46  47  48 0
 3-21G
 ****


