%nproc=1
%NoSave
%Mem=1900MB
#P OB98/GEN NMR

erre ene a

0 1
  C     -179.332    -245.328     194.634
  O     -180.239    -244.551     195.425
  P     -181.818    -244.839     195.440
  C     -182.834    -246.440     197.178
  O     -182.330    -245.126     196.942
  C     -183.191    -246.694     198.650
  O     -182.060    -246.403     199.519
  C     -184.377    -245.871     199.179
  O     -185.011    -246.690     200.171
  C     -183.676    -244.685     199.830
  O     -184.489    -243.987     200.762
  C     -182.466    -245.386     200.453
  N     -180.488    -242.099     203.856
  C     -181.494    -243.002     203.954
  N     -181.933    -243.870     203.022
  C     -181.209    -243.772     201.892
  C     -180.148    -242.903     201.644
  C     -179.802    -242.024     202.693
  N     -178.817    -241.069     202.577
  N     -179.669    -243.072     200.356
  C     -180.427    -244.019     199.832
  N     -181.366    -244.478     200.726
  O     -182.262    -245.862     194.441
  O     -182.482    -243.421     195.090
  H     -185.208    -243.543     200.265
  H     -183.182    -243.546     194.421
  H     -182.006    -243.029     204.915
  H     -180.357    -244.388     198.823
  H     -182.741    -245.880     201.398
  H     -183.372    -243.973     199.047
  H     -185.085    -245.577     198.408
  H     -183.395    -247.771     198.757
  H     -182.075    -247.170     196.855
  H     -178.698    -240.425     203.343
  H     -178.375    -240.917     201.677
  H     -183.723    -246.594     196.555
  P     -186.484    -247.282     199.954
  C     -186.086    -249.589     198.906
  O     -186.362    -248.876     200.107
  O     -187.176    -246.814     198.715
  O     -187.287    -246.849     201.275
  H     -188.252    -246.897     201.100
  H     -186.993    -249.655     198.298
  H     -185.749    -250.596     199.165
  H     -185.298    -249.090     198.333
  H     -178.335    -244.965     194.775
  H     -179.599    -245.246     193.601
  H     -179.384    -246.353     194.935

 3  4  5  6  7  8  9  10  11  12  22  25  29  30  31  32 0
 6-311+G(2d,p)
 ****
 33  36  37 0
 6-311+G(2d,p)
 ****
 1  2  13  14  15  16  17  18  19  20  21  23  24  26 0
 3-21G
 ****
 27  28  34  35  38  39  40  41  42  43  44  45  46  47  48 0
 3-21G
 ****


