%nproc=1
%NoSave
%Mem=1900MB
#P OB98/GEN NMR

erre ene a

0 1
  C      199.418    -288.389      95.813
  O      200.030    -287.709      96.903
  P      199.088    -287.157      98.077
  C      199.421    -289.232      99.596
  O      198.507    -288.436      98.853
  C      199.076    -289.217     101.086
  O      200.006    -290.080     101.795
  C      199.148    -287.834     101.746
  O      198.148    -287.797     102.769
  C      200.521    -287.835     102.392
  O      200.626    -286.872     103.437
  C      200.609    -289.291     102.844
  N      203.971    -290.940     106.325
  C      202.660    -290.627     106.420
  N      201.830    -290.196     105.447
  C      202.483    -290.092     104.277
  C      203.827    -290.343     104.038
  C      204.589    -290.790     105.129
  N      205.920    -291.118     105.035
  N      204.136    -290.098     102.715
  C      203.003    -289.708     102.167
  N      201.974    -289.714     103.067
  O      197.820    -286.597      97.273
  O      199.694    -286.102      98.938
  H      201.555    -286.851     103.740
  H      197.788    -285.623      97.337
  H      202.219    -290.748     107.406
  H      202.876    -289.413     101.136
  H      200.044    -289.473     103.768
  H      201.286    -287.604     101.641
  H      199.012    -287.000     101.050
  H      198.075    -289.651     101.214
  H      200.426    -288.821      99.468
  H      206.362    -291.559     105.825
  H      206.341    -291.193     104.116
  H      199.408    -290.255      99.215
  P      197.423    -286.389     103.027
  C      195.028    -286.788     102.112
  O      196.309    -286.231     101.889
  O      198.541    -285.318     102.621
  O      196.953    -286.197     104.430
  H      198.406    -284.491     103.120
  H      194.279    -286.159     101.623
  H      194.792    -286.859     103.181
  H      194.991    -287.790     101.673
  H      200.170    -288.695      95.116
  H      198.726    -287.733      95.327
  H      198.897    -289.250      96.177

 3  4  5  6  7  8  9  10  11  12  22  25  29  30  31  32 0
 6-311+G(2d,p)
 ****
 33  36  37 0
 6-311+G(2d,p)
 ****
 1  2  13  14  15  16  17  18  19  20  21  23  24  26 0
 3-21G
 ****
 27  28  34  35  38  39  40  41  42  43  44  45  46  47  48 0
 3-21G
 ****


