%nproc=1
%NoSave
%Mem=1900MB
#P OB98/GEN NMR

erre ene a

0 1
  C      344.124    1033.010     481.585
  O      345.298    1033.286     480.837
  H      344.376    1032.996     482.645
  H      343.726    1032.036     481.301
  H      343.367    1033.789     481.414
  P      345.106    1033.543     479.264
  C      346.535    1031.571     478.283
  O      346.428    1032.955     478.572
  C      347.933    1031.059     478.618
  O      348.895    1031.672     477.716
  C      348.388    1031.389     480.048
  O      349.157    1030.284     480.544
  C      349.285    1032.601     479.883
  O      350.206    1032.742     480.955
  C      349.898    1032.349     478.497
  N      350.362    1033.571     477.848
  C      351.499    1034.178     478.377
  O      352.054    1033.686     479.359
  N      351.952    1035.349     477.815
  C      351.287    1035.894     476.851
  N      351.785    1037.062     476.345
  C      350.051    1035.314     476.288
  C      349.653    1034.149     476.810
  O      345.300    1035.124     479.167
  O      343.810    1033.037     478.713
  H      350.798    1033.511     480.749
  H      346.013    1035.476     479.726
  H      349.515    1035.809     475.485
  H      348.760    1033.659     476.472
  H      350.765    1031.653     478.592
  H      348.662    1033.514     479.844
  H      347.558    1031.585     480.730
  H      347.983    1029.976     478.427
  H      352.614    1037.436     476.772
  H      346.338    1031.390     477.223
  H      351.319    1037.596     475.628
  H      345.788    1031.042     478.874
  P      348.452    1029.192     481.474
  C      350.214    1029.128     483.364
  O      349.578    1028.411     482.319
  O      347.439    1028.324     480.807
  O      347.753    1030.100     482.620
  H      346.884    1029.692     482.827
  H      350.935    1028.498     483.841
  H      349.482    1029.439     484.080
  H      350.705    1029.988     482.959

 6  7  8  9  10  11  12  13  14  15  16  26  30  31  32  33  35 0
 6-311+G(2d,p)
 ****
 37  38 0
 6-311+G(2d,p)
 ****
 1  2  3  4  5  17  18  19  20  21  22  23  24  25 0
 3-21G
 ****
 27  28  29  34  36  39  40  41  42  43  44  45  46 0
 3-21G
 ****


