%nproc=1
%NoSave
%Mem=1900MB
#P OB98/GEN NMR

erre ene a

0 1
  C      247.366     -25.410      80.923
  O      246.928     -24.100      80.616
  H      246.511     -26.088      80.866
  H      247.774     -25.440      81.939
  H      248.128     -25.737      80.204
  P      248.058     -22.972      80.472
  C      249.827     -22.049      82.179
  O      248.529     -22.579      81.963
  C      250.069     -21.867      83.678
  O      250.058     -23.128      84.372
  C      251.429     -21.277      84.015
  O      251.537     -19.912      83.676
  C      251.482     -21.546      85.514
  O      250.709     -20.578      86.239
  C      250.826     -22.949      85.597
  N      251.795     -24.015      85.786
  C      251.837     -24.573      87.071
  O      251.077     -24.161      87.957
  N      252.766     -25.556      87.336
  C      253.555     -25.961      86.392
  N      254.456     -26.933      86.710
  C      253.523     -25.422      85.017
  C      252.635     -24.457      84.790
  O      247.213     -21.690      80.018
  O      249.196     -23.320      79.569
  H      249.820     -20.573      85.829
  H      246.469     -21.487      80.609
  H      254.202     -25.805      84.263
  H      252.549     -24.008      83.809
  H      250.101     -22.984      86.424
  H      252.498     -21.498      85.902
  H      252.224     -21.868      83.539
  H      249.252     -21.247      84.079
  H      254.458     -27.265      87.673
  H      249.962     -21.105      81.647
  H      255.140     -27.305      86.073
  H      250.548     -22.765      81.768
  P      252.974     -19.254      83.381
  C      255.143     -19.032      84.746
  O      253.727     -19.173      84.797
  O      252.938     -17.972      82.621
  O      253.771     -20.434      82.637
  H      253.868     -21.249      83.157
  H      255.533     -18.989      85.741
  H      255.393     -18.131      84.226
  H      255.567     -19.870      84.233

 6  7  8  9  10  11  12  13  14  15  16  26  30  31  32  33  35 0
 6-311+G(2d,p)
 ****
 37  38 0
 6-311+G(2d,p)
 ****
 1  2  3  4  5  17  18  19  20  21  22  23  24  25 0
 3-21G
 ****
 27  28  29  34  36  39  40  41  42  43  44  45  46 0
 3-21G
 ****


