%nproc=1
%NoSave
%Mem=1900MB
#P OB98/GEN NMR

erre ene a

0 1
  C      548.986     327.593      41.839
  O      548.311     327.075      42.965
  H      548.575     328.572      41.601
  H      548.824     326.926      40.980
  H      550.061     327.689      42.041
  P      548.990     325.839      43.733
  C      547.742     324.071      42.305
  O      548.994     324.598      42.710
  C      547.940     322.972      41.252
  O      548.215     323.601      39.972
  C      549.106     322.018      41.564
  O      548.760     320.694      41.134
  C      550.213     322.528      40.635
  O      551.188     321.532      40.353
  C      549.393     322.969      39.425
  N      550.573     323.876      34.630
  C      549.637     323.018      35.180
  N      548.936     322.245      34.319
  N      549.392     322.940      36.466
  C      550.155     323.783      37.209
  C      551.126     324.663      36.793
  C      551.379     324.735      35.367
  O      552.236     325.453      34.824
  N      551.703     325.293      37.864
  C      551.114     324.786      38.917
  N      550.154     323.852      38.572
  O      547.873     325.436      44.808
  O      550.304     326.134      44.381
  H      551.912     321.943      39.828
  H      548.057     325.878      45.662
  H      550.727     323.880      33.633
  H      551.344     325.021      39.954
  H      549.067     322.116      38.809
  H      550.726     323.386      41.107
  H      549.025     322.271      33.318
  H      549.413     321.995      42.611
  H      548.210     321.654      34.701
  H      547.003     322.411      41.147
  H      547.131     324.868      41.872
  H      547.213     323.667      43.172
  P      548.415     319.603      42.257
  C      550.647     318.269      42.118
  O      549.790     319.093      42.900
  O      547.908     318.341      41.414
  O      547.377     320.057      43.241
  H      547.203     317.871      41.908
  H      551.517     318.016      42.688
  H      550.941     318.797      41.235
  H      550.128     317.374      41.843

 6  7  8  9  10  11  12  13  14  15  26  29  33  34 0
 6-311+G(2d,p)
 ****
 36  38  39  40  41 0
 6-311+G(2d,p)
 ****
 1  2  3  4  5  16  17  18  19  20  21  22  23  24  25 0
 3-21G
 ****
 27  28  30  31  32  35  37  42  43  44  45  46  47 0
 3-21G
 ****
 48  49 0
 3-21G
 ****


