%nproc=1
%NoSave
%Mem=1900MB
#P OB98/GEN NMR

erre ene a

0 1
  C     -513.170    -278.908    -240.505
  O     -511.959    -278.346    -240.038
  H     -513.995    -278.207    -240.353
  H     -513.075    -279.111    -241.576
  H     -513.375    -279.849    -239.986
  P     -511.885    -277.983    -238.476
  C     -510.880    -280.204    -237.572
  O     -510.658    -278.836    -237.887
  C     -509.688    -281.037    -238.027
  O     -509.751    -281.253    -239.455
  C     -508.334    -280.387    -237.768
  O     -507.902    -280.567    -236.433
  C     -507.462    -281.164    -238.739
  O     -507.172    -282.466    -238.196
  C     -508.385    -281.288    -239.959
  N     -507.494    -280.212    -244.885
  C     -507.584    -281.379    -244.219
  N     -507.820    -281.586    -242.905
  C     -507.971    -280.415    -242.263
  C     -507.895    -279.140    -242.806
  C     -507.652    -279.062    -244.187
  N     -507.541    -277.868    -244.867
  N     -508.062    -278.184    -241.828
  C     -508.269    -278.867    -240.719
  N     -508.211    -280.220    -240.929
  O     -513.168    -278.718    -237.856
  O     -511.846    -276.526    -238.152
  H     -506.688    -282.317    -237.360
  H     -513.405    -278.309    -237.002
  H     -507.450    -282.278    -244.820
  H     -508.464    -278.433    -239.745
  H     -508.252    -282.238    -240.490
  H     -506.504    -280.677    -238.940
  H     -508.332    -279.326    -238.054
  H     -509.751    -282.018    -237.539
  H     -511.783    -280.546    -238.090
  H     -507.185    -277.915    -245.807
  H     -507.504    -277.010    -244.332
  H     -511.026    -280.305    -236.492
  P     -506.874    -279.489    -235.835
  C     -508.767    -277.822    -235.192
  O     -507.695    -278.652    -234.745
  O     -506.695    -278.448    -237.040
  O     -505.571    -280.053    -235.376
  H     -505.830    -278.002    -236.992
  H     -509.213    -277.332    -234.352
  H     -509.502    -278.423    -235.686
  H     -508.390    -277.088    -235.873

 6  7  8  9  10  11  12  13  14  15  25  28  32  33  34  35 0
 6-311+G(2d,p)
 ****
 36  39  40 0
 6-311+G(2d,p)
 ****
 1  2  3  4  5  16  17  18  19  20  21  22  23  24 0
 3-21G
 ****
 26  27  29  30  31  37  38  41  42  43  44  45  46  47 0
 3-21G
 ****
 48 0
 3-21G
 ****


