%nproc=1
%NoSave
%Mem=1900MB
#P OB98/GEN NMR

erre ene a

0 1
  C      191.640    -841.156     576.722
  O      191.478    -842.056     575.645
  P      190.028    -842.155     574.963
  C      187.660    -842.740     575.904
  O      189.080    -842.891     576.036
  C      186.963    -843.282     577.148
  O      187.179    -842.409     578.286
  C      185.453    -843.400     577.015
  O      185.065    -844.585     576.323
  C      185.033    -843.473     578.471
  O      185.233    -844.831     578.979
  C      186.018    -842.499     579.139
  N      183.505    -839.558     582.391
  C      184.084    -840.795     582.593
  N      183.918    -841.341     583.825
  N      184.765    -841.430     581.689
  C      184.840    -840.755     580.500
  C      184.301    -839.530     580.192
  C      183.544    -838.839     581.210
  O      182.958    -837.774     581.074
  N      184.588    -839.183     578.897
  C      185.305    -840.184     578.426
  N      185.451    -841.184     579.351
  O      190.227    -843.259     573.818
  O      189.504    -840.857     574.419
  H      186.063    -845.144     578.582
  H      189.494    -843.205     573.171
  H      182.976    -839.103     583.133
  H      185.723    -840.238     577.431
  H      186.365    -842.892     580.114
  H      183.978    -843.233     578.629
  H      183.354    -840.946     584.547
  H      185.018    -842.499     576.561
  H      184.291    -842.297     583.973
  H      187.421    -844.265     577.398
  H      187.320    -843.272     575.027
  H      187.438    -841.678     575.773
  P      183.581    -844.609     575.727
  C      181.359    -844.419     577.071
  O      182.638    -845.040     576.947
  O      183.592    -845.902     574.774
  O      183.189    -843.359     574.988
  H      182.930    -845.802     574.061
  H      180.750    -845.015     577.768
  H      180.835    -844.388     576.114
  H      181.469    -843.404     577.464
  H      192.650    -841.198     577.073
  H      190.975    -841.426     577.516
  H      191.417    -840.162     576.393

 3  4  5  6  7  8  9  10  11  12  23  26  30  31 0
 6-311+G(2d,p)
 ****
 33  35  36  37  38 0
 6-311+G(2d,p)
 ****
 1  2  13  14  15  16  17  18  19  20  21  22  24  25 0
 3-21G
 ****
 27  28  29  32  34  39  40  41  42  43  44  45  46  47  48  49 0
 3-21G
 ****


