%nproc=1
%NoSave
%Mem=1900MB
#P OB98/GEN NMR

erre ene a

0 1
  C      166.282     735.912    1088.332
  O      167.065     734.913    1088.961
  P      167.457     735.130    1090.512
  C      169.439     736.818    1090.129
  O      169.008     735.527    1090.524
  C      170.379     737.399    1091.194
  O      169.636     737.679    1092.410
  C      171.521     736.479    1091.603
  O      172.551     736.451    1090.642
  C      171.912     737.097    1092.949
  O      172.739     738.249    1092.739
  C      170.545     737.522    1093.515
  N      170.019     736.601    1094.502
  C      170.171     736.958    1095.844
  O      170.716     738.009    1096.197
  N      169.683     736.070    1096.767
  C      169.138     734.851    1096.481
  O      168.753     734.079    1097.365
  C      169.025     734.495    1095.080
  C      169.467     735.378    1094.143
  O      167.407     733.605    1091.027
  O      166.532     736.052    1091.214
  H      167.606     732.975    1090.306
  H      173.613     737.911    1092.443
  H      169.769     736.318    1097.733
  H      168.587     733.527    1094.802
  H      169.411     735.122    1093.095
  H      170.623     738.519    1093.984
  H      172.470     736.380    1093.584
  H      171.130     735.468    1091.758
  H      170.770     738.360    1090.803
  H      168.556     737.470    1090.036
  H      169.922     736.754    1089.160
  P      172.692     735.088    1089.775
  C      174.411     733.833    1091.291
  O      174.150     734.521    1090.083
  O      172.784     735.672    1088.304
  O      171.567     734.122    1089.986
  H      173.366     736.457    1088.236
  H      175.302     733.217    1091.173
  H      173.575     733.172    1091.561
  H      174.582     734.548    1092.094
  H      166.102     735.636    1087.314
  H      166.804     736.845    1088.361
  H      165.349     736.010    1088.846

 3  4  5  6  7  8  9  10  11  12  13  24  28  29  30  31  32 0
 6-311+G(2d,p)
 ****
 33  34 0
 6-311+G(2d,p)
 ****
 1  2  14  15  16  17  18  19  20  21  22  23  25  26  27 0
 3-21G
 ****
 35  36  37  38  39  40  41  42  43  44  45 0
 3-21G
 ****


