%nproc=1
%NoSave
%Mem=1900MB
#P OB98/GEN NMR

erre ene a

0 1
  C      -55.495     -52.226     123.204
  O      -56.643     -52.819     123.776
  P      -57.670     -53.652     122.867
  C      -57.498     -55.884     124.149
  O      -57.173     -55.178     122.955
  C      -58.793     -56.677     123.975
  O      -58.729     -57.497     122.792
  C      -59.099     -57.627     125.125
  O      -59.607     -56.917     126.238
  C      -60.093     -58.573     124.466
  O      -61.420     -58.021     124.473
  C      -59.548     -58.665     123.025
  N      -58.809     -59.899     122.787
  C      -59.581     -61.062     122.688
  O      -60.802     -61.015     122.834
  N      -58.942     -62.260     122.477
  C      -57.647     -62.292     122.395
  N      -57.072     -63.509     122.198
  C      -56.797     -61.094     122.526
  C      -57.438     -59.942     122.721
  O      -57.876     -53.122     121.488
  O      -59.007     -53.662     123.749
  H      -62.021     -58.756     124.238
  H      -59.457     -52.783     123.732
  H      -55.722     -61.171     122.463
  H      -56.891     -59.013     122.830
  H      -60.370     -58.614     122.299
  H      -60.145     -59.538     124.981
  H      -58.192     -58.182     125.398
  H      -59.617     -55.960     123.848
  H      -57.689     -64.311     122.145
  H      -57.625     -55.155     124.954
  H      -56.076     -63.652     122.157
  H      -56.669     -56.547     124.412
  P      -59.245     -57.395     127.721
  C      -58.292     -55.173     128.578
  O      -58.008     -56.514     128.233
  O      -59.093     -58.870     127.902
  O      -60.466     -56.843     128.600
  H      -60.751     -57.539     129.221
  H      -57.481     -54.794     129.207
  H      -59.234     -55.099     129.129
  H      -58.350     -54.567     127.671
  H      -54.939     -51.718     123.964
  H      -55.793     -51.526     122.452
  H      -54.884     -52.985     122.763

 3  4  5  6  7  8  9  10  11  12  13  23  27  28  29  30  32 0
 6-311+G(2d,p)
 ****
 34  35 0
 6-311+G(2d,p)
 ****
 1  2  14  15  16  17  18  19  20  21  22  24  25  26 0
 3-21G
 ****
 31  33  36  37  38  39  40  41  42  43  44  45  46 0
 3-21G
 ****


