%nproc=1
%NoSave
%Mem=1900MB
#P OB98/GEN NMR

erre ene a

0 1
  C      136.524    -334.156     150.725
  O      136.743    -335.549     150.512
  P      136.739    -336.504     151.801
  C      138.400    -338.232     150.774
  O      137.113    -337.992     151.337
  C      138.569    -339.723     150.463
  O      138.721    -340.495     151.669
  C      137.371    -340.327     149.747
  O      137.374    -339.980     148.374
  C      137.565    -341.817     150.009
  O      138.348    -342.443     148.987
  C      138.307    -341.839     151.366
  N      137.501    -342.397     152.439
  C      137.717    -343.757     152.721
  O      138.520    -344.406     152.060
  N      136.983    -344.339     153.728
  C      136.105    -343.640     154.376
  N      135.409    -344.273     155.360
  C      135.831    -342.210     154.091
  C      136.553    -341.668     153.121
  O      135.183    -336.613     152.172
  O      137.543    -335.977     152.949
  H      138.405    -343.394     149.237
  H      135.070    -336.699     153.139
  H      135.085    -341.672     154.653
  H      136.425    -340.626     152.843
  H      139.225    -342.439     151.284
  H      136.604    -342.343     150.034
  H      136.437    -339.985     150.225
  H      139.474    -339.847     149.850
  H      135.621    -345.246     155.525
  H      139.180    -337.904     151.461
  H      134.696    -343.823     155.920
  H      138.501    -337.629     149.865
  P      136.048    -339.338     147.762
  C      135.740    -340.056     145.311
  O      136.366    -339.137     146.199
  O      136.114    -337.829     148.304
  O      134.749    -339.998     148.097
  H      135.296    -337.352     148.074
  H      135.877    -339.679     144.286
  H      134.675    -340.127     145.523
  H      136.222    -341.033     145.390
  H      136.553    -333.643     149.787
  H      137.288    -333.769     151.367
  H      135.567    -334.011     151.182

 3  4  5  6  7  8  9  10  11  12  13  21  23  27  28  29  30  32 0
 6-311+G(2d,p)
 ****
 34  35 0
 6-311+G(2d,p)
 ****
 1  2  14  15  16  17  18  19  20  22  24  25  26 0
 3-21G
 ****
 31  33  36  37  38  39  40  41  42  43  44  45  46 0
 3-21G
 ****


