%nproc=1
%NoSave
%Mem=1900MB
#P OB98/GEN NMR

erre ene a

0 1
  C      -89.257    -114.454       8.514
  O      -90.526    -113.866       8.279
  P      -91.823    -114.776       8.017
  C      -92.583    -114.212      10.421
  O      -92.308    -115.234       9.474
  C      -93.812    -114.585      11.245
  O      -95.001    -114.395      10.454
  C      -93.848    -116.038      11.703
  O      -92.968    -116.250      12.797
  C      -95.330    -116.207      12.011
  O      -95.642    -115.645      13.296
  C      -95.983    -115.360      10.899
  N      -96.471    -116.166       9.785
  C      -97.828    -116.498       9.803
  O      -98.564    -116.114      10.711
  N      -98.339    -117.235       8.763
  C      -97.560    -117.627       7.803
  N      -98.133    -118.295       6.766
  C      -96.113    -117.347       7.774
  C      -95.643    -116.617       8.783
  O      -91.621    -115.890       7.048
  O      -92.958    -113.741       7.584
  H      -95.274    -116.254      13.966
  H      -92.981    -113.563       6.612
  H      -95.502    -117.707       6.959
  H      -94.595    -116.351       8.824
  H      -96.819    -114.779      11.306
  H      -95.660    -117.251      12.014
  H      -93.564    -116.705      10.881
  H      -93.863    -113.910      12.110
  H      -99.146    -118.311       6.741
  H      -92.783    -113.281       9.881
  H      -97.669    -118.378       5.870
  H      -91.708    -114.067      11.061
  P      -92.668    -117.766      13.222
  C      -90.256    -117.940      12.286
  O      -91.612    -118.323      12.147
  O      -94.032    -118.523      12.872
  O      -92.276    -117.939      14.652
  H      -94.557    -118.668      13.680
  H      -89.648    -118.578      11.640
  H      -89.921    -118.064      13.319
  H      -90.128    -116.901      11.973
  H      -88.530    -113.684       8.665
  H      -88.977    -115.048       7.669
  H      -89.307    -115.073       9.385

 3  4  5  6  7  8  9  10  11  12  13  23  27  28  29  30  32 0
 6-311+G(2d,p)
 ****
 34  35 0
 6-311+G(2d,p)
 ****
 1  2  14  15  16  17  18  19  20  21  22  24  25  26 0
 3-21G
 ****
 31  33  36  37  38  39  40  41  42  43  44  45  46 0
 3-21G
 ****


