%nproc=1
%NoSave
%Mem=1900MB
#P OB98/GEN NMR

erre ene a

0 1
  C      128.427    -114.049     672.012
  O      127.280    -114.674     671.478
  H      128.207    -112.991     672.171
  H      129.265    -114.136     671.323
  H      128.687    -114.505     672.972
  P      127.433    -116.222     671.067
  C      124.926    -116.393     671.776
  O      125.919    -116.694     670.804
  C      123.835    -117.462     671.767
  O      124.410    -118.776     671.986
  C      122.779    -117.303     672.857
  O      121.820    -116.298     672.555
  C      122.170    -118.690     672.835
  O      121.332    -118.836     671.675
  C      123.438    -119.565     672.725
  N      123.979    -119.967     674.028
  C      123.118    -120.679     674.868
  O      121.969    -120.948     674.515
  N      123.571    -121.044     676.117
  C      124.780    -120.753     676.479
  N      125.161    -121.137     677.727
  C      125.719    -120.012     675.618
  C      125.265    -119.654     674.422
  O      127.787    -116.937     672.456
  O      128.382    -116.513     669.952
  H      120.786    -119.628     671.829
  H      127.756    -117.923     672.342
  H      126.720    -119.781     675.976
  H      125.903    -119.111     673.737
  H      123.244    -120.468     672.127
  H      121.546    -118.908     673.704
  H      123.233    -117.125     673.831
  H      123.391    -117.472     670.774
  H      124.466    -121.590     678.314
  H      124.494    -115.410     671.532
  H      126.024    -120.830     678.156
  H      125.379    -116.342     672.767
  P      121.487    -115.233     673.714
  C      120.800    -113.606     671.813
  O      120.484    -114.153     673.086
  O      122.858    -114.426     673.867
  O      121.047    -115.831     675.012
  H      123.008    -114.154     674.801
  H      120.043    -112.905     671.528
  H      120.849    -114.392     671.089
  H      121.746    -113.109     671.863

 6  7  8  9  10  11  12  13  14  15  16  26  30  31  32  33  35 0
 6-311+G(2d,p)
 ****
 37  38 0
 6-311+G(2d,p)
 ****
 1  2  3  4  5  17  18  19  20  21  22  23  24  25 0
 3-21G
 ****
 27  28  29  34  36  39  40  41  42  43  44  45  46 0
 3-21G
 ****


